
-------------------------------------------------------------------------
|    ___ _   _ ___                                                      |
|   / __| | | |_  )   Release 8.0.0 "Harrier"                           |
|   \__ \ |_| |/ /                                                      |
|   |___/\___//___|   Suite (Computational Fluid Dynamics Code)         |
|                                                                       |
-------------------------------------------------------------------------
| SU2 Project Website: https://su2code.github.io                        |
|                                                                       |
| The SU2 Project is maintained by the SU2 Foundation                   |
| (http://su2foundation.org)                                            |
-------------------------------------------------------------------------
| Copyright 2012-2023, SU2 Contributors                                 |
|                                                                       |
| SU2 is free software; you can redistribute it and/or                  |
| modify it under the terms of the GNU Lesser General Public            |
| License as published by the Free Software Foundation; either          |
| version 2.1 of the License, or (at your option) any later version.    |
|                                                                       |
| SU2 is distributed in the hope that it will be useful,                |
| but WITHOUT ANY WARRANTY; without even the implied warranty of        |
| MERCHANTABILITY or FITNESS FOR A PARTICULAR PURPOSE. See the GNU      |
| Lesser General Public License for more details.                       |
|                                                                       |
| You should have received a copy of the GNU Lesser General Public      |
| License along with SU2. If not, see <http://www.gnu.org/licenses/>.   |
-------------------------------------------------------------------------

Parsing config file for zone 0

----------------- Physical Case Definition ( Zone 0 ) -------------------
Compressible RANS equations.
Turbulence model: Spalart-Allmaras-noft2
Hybrid RANS/LES: No Hybrid RANS/LES
Mach number: 0.734.
Angle of attack (AoA): 2.31 deg, and angle of sideslip (AoS): 0 deg.
Reynolds number: 6.5e+06. Reference length 1.
Fixed CL mode, target value: 0.824.
Reading and writing binary SU2 native restart files.
Read flow solution from: solution_flow.dat.
Dimensional simulation.
The reference area is 1 m^2.
The semi-span will be computed using the max y(3D) value.
The reference length is 1 m.
Reference origin for moment evaluation is (0.25, 0, 0).
Surface(s) where the force coefficients are evaluated: AIRFOIL.

Surface(s) plotted in the output file: AIRFOIL.
Surface(s) affected by the design variables: AIRFOIL.
Input mesh file name: mesh_RAE2822_turb_deform.su2

--------------- Space Numerical Integration ( Zone 0 ) ------------------
Jameson-Schmidt-Turkel scheme (2nd order in space) for the flow inviscid terms.
JST viscous coefficients (2nd & 4th): 0.5, 0.02.
The method includes a grid stretching correction (p = 0.3).
Scalar upwind solver for the turbulence model.
First order integration in space.
Average of gradients with correction (viscous flow terms).
Average of gradients with correction (viscous turbulence terms).
Gradient for viscous and source terms: inverse-distance weighted Least-Squares.

--------------- Time Numerical Integration  ( Zone 0 ) ------------------
Local time stepping (steady state simulation).
Euler implicit method for the flow equations.
FGMRES is used for solving the linear system.
Using a ILU(0) preconditioning.
Convergence criteria of the linear solver: 1e-06.
Max number of linear iterations: 10.
No CFL adaptation.
Courant-Friedrichs-Lewy number:       10
Euler implicit time integration for the turbulence model.

------------------ Convergence Criteria  ( Zone 0 ) ---------------------
Maximum number of solver subiterations: 5500.
Begin convergence monitoring at iteration 10.
Residual minimum value: 1e-12.
Cauchy series min. value: 1e-06.
Number of Cauchy elements: 100.
Begin windowed time average at iteration 0.

-------------------- Output Information ( Zone 0 ) ----------------------
File writing frequency: 
+------------------------------------+
|                     File| Frequency|
+------------------------------------+
|                  RESTART|     10000|
|                 PARAVIEW|     10000|
|         SURFACE_PARAVIEW|     10000|
|              SURFACE_CSV|     10000|
+------------------------------------+
Writing the convergence history file every 1 inner iterations.
Writing the screen convergence history every 1 inner iterations.
The tabular file format is CSV (.csv).
Convergence history file name: history_direct.
Forces breakdown file name: forces_breakdown.dat.
Surface file name: surface_flow.
Volume file name: flow.
Restart file name: restart_flow.dat.

------------- Config File Boundary Information ( Zone 0 ) ---------------
+-----------------------------------------------------------------------+
|                        Marker Type|                        Marker Name|
+-----------------------------------------------------------------------+
|                          Far-field|                           FARFIELD|
+-----------------------------------------------------------------------+
|                     Heat flux wall|                            AIRFOIL|
+-----------------------------------------------------------------------+

-------------------- Output Preprocessing ( Zone 0 ) --------------------

WARNING: SURFACE_PRESSURE_DROP can only be computed for at least 2 surfaces (outlet, inlet, ...)

Screen output fields: INNER_ITER, RMS_DENSITY, RMS_NU_TILDE, LIFT, DRAG
History output group(s): ITER, RMS_RES, AERO_COEFF
Convergence field(s): RMS_DENSITY
Warning: No (valid) fields chosen for time convergence monitoring. Time convergence monitoring inactive.
Volume output fields: COORDINATES, SOLUTION, PRIMITIVE

------------------- Geometry Preprocessing ( Zone 0 ) -------------------
Two dimensional problem.
13937 grid points before partitioning.
22842 volume elements before partitioning.
2 surface markers.
192 boundary elements in index 0 (Marker = AIRFOIL).
40 boundary elements in index 1 (Marker = FARFIELD).
Executing the partitioning functions.
Building the graph adjacency structure.
Calling ParMETIS... graph partitioning complete (831 edge cuts).
Distributing ParMETIS coloring.
Rebalancing vertices.
Rebalancing volume element connectivity.
Rebalancing markers and surface elements.
14875 vertices including ghost points. 
23674 interior elements including halo cells. 
18780 triangles.
4894 quadrilaterals.
Establishing MPI communication patterns.
Setting point connectivity.
Renumbering points (Reverse Cuthill McKee Ordering).
Recomputing point connectivity.
Setting element connectivity.
Checking the numerical grid orientation.
All volume elements are correctly orientend.
All surface elements are correctly orientend.
Identifying edges and vertices.
Setting the control volume structure.
Area of the computational grid: 32209.9.
Searching for the closest normal neighbors to the surfaces.
Storing a mapping from global to local point index.
Compute the surface curvature.
Max K: 185.546. Mean K: 7.99996. Standard deviation K: 25.0259.
Checking for periodicity.
Computing mesh quality statistics for the dual control volumes.
+--------------------------------------------------------------+
|           Mesh Quality Metric|        Minimum|        Maximum|
+--------------------------------------------------------------+
|    Orthogonality Angle (deg.)|        74.8834|        89.9995|
|     CV Face Area Aspect Ratio|        1.00341|        3358.38|
|           CV Sub-Volume Ratio|        1.00056|         1216.7|
+--------------------------------------------------------------+
Finding max control volume width.
Communicating number of neighbors.
Wetted area = 2.02166 m.
Area projection in the x-plane = 0.125998 m, y-plane = 0.995873 m.
Max. coordinate in the x-direction = 1 m, y-direction = 0.061942 m.
Min. coordinate in the x-direction = 0 m, y-direction = -0.0609284 m.
Computing wall distances.

-------------------- Solver Preprocessing ( Zone 0 ) --------------------
WARNING: AoA in the solution file (2.77821 deg.) +
         AoA offset in mesh file (0 deg.) = 2.77821 deg.
WARNING: SU2 will use the dCD/dCL provided in the direct solution file: 0.0183668.
WARNING: SU2 will use the dCMz/dCL provided in the direct solution file: 0.00318432.
Viscous flow: Computing pressure using the ideal gas law
based on the free-stream temperature and a density computed
from the Reynolds number.
Force coefficients computed using free-stream values.

-- Models:
+------------------------------------------------------------------------------+
|          Viscosity Model|        Conductivity Model|              Fluid Model|
+------------------------------------------------------------------------------+
|               SUTHERLAND|          CONSTANT_PRANDTL|             STANDARD_AIR|
+------------------------------------------------------------------------------+
-- Fluid properties:
+------------------------------------------------------------------------------+
|                  Name|    Dim. value|    Ref. value|      Unit|Non-dim. value|
+------------------------------------------------------------------------------+
|        Ref. Viscosity|     1.716e-05|             1|   N.s/m^2|     1.716e-05|
|      Sutherland Temp.|        273.15|             1|         K|        273.15|
|     Sutherland Const.|         110.4|             1|         K|         110.4|
+------------------------------------------------------------------------------+
|        Prandtl (Lam.)|             -|             -|         -|          0.71|
|       Prandtl (Turb.)|             -|             -|         -|           0.9|
+------------------------------------------------------------------------------+
|          Gas Constant|       287.058|             1|  N.m/kg.K|       287.058|
|      Spec. Heat Ratio|             -|             -|         -|           1.4|
+------------------------------------------------------------------------------+
-- Initial and free-stream conditions:
+------------------------------------------------------------------------------+
|                  Name|    Dim. value|    Ref. value|      Unit|Non-dim. value|
+------------------------------------------------------------------------------+
|       Static Pressure|         38515|             1|        Pa|         38515|
|               Density|      0.465631|             1|    kg/m^3|      0.465631|
|           Temperature|        288.15|             1|         K|        288.15|
|          Total Energy|        237984|             1|   m^2/s^2|        237984|
|            Velocity-X|       249.484|             1|       m/s|       249.484|
|            Velocity-Y|       12.1067|             1|       m/s|       12.1067|
|    Velocity Magnitude|       249.778|             1|       m/s|       249.778|
+------------------------------------------------------------------------------+
|             Viscosity|    1.7893e-05|             1|   N.s/m^2|    1.7893e-05|
|          Conductivity|             -|             1|   W/m^2.K|             -|
|     Turb. Kin. Energy|       233.959|             1|   m^2/s^2|       233.959|
|     Spec. Dissipation|        608834|             1|       1/s|        608834|
+------------------------------------------------------------------------------+
|           Mach Number|             -|             -|         -|         0.734|
|       Reynolds Number|             -|             -|         -|       6.5e+06|
+------------------------------------------------------------------------------+
Initialize Jacobian structure (Navier-Stokes). MG level: 0.
Initialize Jacobian structure (SA model).

------------------- Numerics Preprocessing ( Zone 0 ) -------------------

----------------- Integration Preprocessing ( Zone 0 ) ------------------

------------------- Iteration Preprocessing ( Zone 0 ) ------------------
Euler/Navier-Stokes/RANS fluid iteration.

------------------------------ Begin Solver -----------------------------

Simulation Run using the Single-zone Driver
WARNING: SU2 was not compiled for an AVX-capable architecture. Performance could be better,
         see https://su2code.github.io/docs_v7/Build-SU2-Linux-MacOS/#compiler-optimizations
+----------------------------------------------------------------+
|  Inner_Iter|    rms[Rho]|     rms[nu]|          CL|          CD|
+----------------------------------------------------------------+
|           0|   -5.231965|   -6.496557|    0.824008|    0.012042|
|           1|   -5.288343|   -6.595234|    0.824010|    0.012049|
|           2|   -5.350170|   -6.713500|    0.824007|    0.012052|
|           3|   -5.396439|   -6.849849|    0.824002|    0.012053|
|           4|   -5.425413|   -6.999185|    0.823998|    0.012053|
|           5|   -5.441103|   -7.133051|    0.823996|    0.012052|
|           6|   -5.448121|   -7.192871|    0.823995|    0.012052|
|           7|   -5.450488|   -7.177545|    0.823996|    0.012052|
|           8|   -5.450808|   -7.147080|    0.823997|    0.012052|
|           9|   -5.449902|   -7.130115|    0.823998|    0.012052|
|          10|   -5.447304|   -7.125407|    0.824000|    0.012052|
|          11|   -5.442215|   -7.121298|    0.824002|    0.012053|
|          12|   -5.434252|   -7.106882|    0.824004|    0.012052|
|          13|   -5.423708|   -7.079830|    0.824007|    0.012052|
|          14|   -5.411406|   -7.045998|    0.824010|    0.012052|
|          15|   -5.398395|   -7.012801|    0.824013|    0.012051|
|          16|   -5.385701|   -6.985067|    0.824016|    0.012051|
|          17|   -5.374190|   -6.964845|    0.824019|    0.012050|
|          18|   -5.364515|   -6.952394|    0.824021|    0.012049|
|          19|   -5.357106|   -6.946886|    0.824022|    0.012049|
|          20|   -5.352170|   -6.946720|    0.824023|    0.012048|
|          21|   -5.349710|   -6.949734|    0.824022|    0.012047|
|          22|   -5.349544|   -6.953586|    0.824020|    0.012046|
|          23|   -5.351333|   -6.956373|    0.824017|    0.012045|
|          24|   -5.354605|   -6.957258|    0.824012|    0.012044|
|          25|   -5.358806|   -6.956714|    0.824006|    0.012043|
|          26|   -5.363345|   -6.956189|    0.823999|    0.012042|
|          27|   -5.367673|   -6.957461|    0.823990|    0.012040|
|          28|   -5.371347|   -6.962072|    0.823981|    0.012039|
|          29|   -5.374095|   -6.971021|    0.823971|    0.012037|
|          30|   -5.375833|   -6.984691|    0.823960|    0.012036|
|          31|   -5.376647|   -7.002872|    0.823950|    0.012034|
|          32|   -5.376744|   -7.024826|    0.823940|    0.012031|
|          33|   -5.376384|   -7.049330|    0.823930|    0.012029|
|          34|   -5.375832|   -7.074755|    0.823921|    0.012027|
|          35|   -5.375322|   -7.099199|    0.823912|    0.012024|
|          36|   -5.375045|   -7.120738|    0.823904|    0.012021|
|          37|   -5.375144|   -7.137789|    0.823897|    0.012018|
|          38|   -5.375719|   -7.149492|    0.823892|    0.012015|
|          39|   -5.376829|   -7.155911|    0.823887|    0.012011|
|          40|   -5.378483|   -7.157963|    0.823883|    0.012008|
|          41|   -5.380644|   -7.157091|    0.823881|    0.012004|
|          42|   -5.383221|   -7.154883|    0.823879|    0.012001|
|          43|   -5.386078|   -7.152774|    0.823879|    0.011998|
|          44|   -5.389044|   -7.151883|    0.823879|    0.011995|
|          45|   -5.391935|   -7.152954|    0.823880|    0.011992|
|          46|   -5.394576|   -7.156360|    0.823882|    0.011989|
|          47|   -5.396822|   -7.162136|    0.823885|    0.011986|
|          48|   -5.398574|   -7.170014|    0.823889|    0.011984|
|          49|   -5.399780|   -7.179477|    0.823893|    0.011981|
|          50|   -5.400432|   -7.189819|    0.823898|    0.011979|
|          51|   -5.400556|   -7.200251|    0.823903|    0.011978|
|          52|   -5.400190|   -7.210013|    0.823908|    0.011976|
|          53|   -5.399382|   -7.218516|    0.823914|    0.011975|
|          54|   -5.398169|   -7.225433|    0.823920|    0.011974|
|          55|   -5.396581|   -7.230746|    0.823926|    0.011973|
|          56|   -5.394637|   -7.234690|    0.823932|    0.011972|
|          57|   -5.392348|   -7.237653|    0.823939|    0.011971|
|          58|   -5.389720|   -7.240052|    0.823946|    0.011971|
|          59|   -5.386758|   -7.242230|    0.823952|    0.011970|
|          60|   -5.383466|   -7.244400|    0.823959|    0.011970|
|          61|   -5.379856|   -7.246630|    0.823966|    0.011970|
|          62|   -5.375939|   -7.248861|    0.823973|    0.011969|
|          63|   -5.371737|   -7.250958|    0.823980|    0.011969|
|          64|   -5.367273|   -7.252762|    0.823986|    0.011969|
|          65|   -5.362580|   -7.254132|    0.823993|    0.011970|
|          66|   -5.357695|   -7.254985|    0.823999|    0.011970|
|          67|   -5.352663|   -7.255298|    0.824005|    0.011970|
|          68|   -5.347529|   -7.255106|    0.824011|    0.011971|
|          69|   -5.342342|   -7.254477|    0.824016|    0.011971|
|          70|   -5.337145|   -7.253492|    0.824021|    0.011972|
|          71|   -5.331978|   -7.252222|    0.824025|    0.011973|
|          72|   -5.326873|   -7.250713|    0.824029|    0.011973|
|          73|   -5.321854|   -7.248995|    0.824033|    0.011974|
|          74|   -5.316934|   -7.247081|    0.824035|    0.011975|
|          75|   -5.312122|   -7.244981|    0.824038|    0.011976|
|          76|   -5.307417|   -7.242707|    0.824040|    0.011977|
|          77|   -5.302817|   -7.240286|    0.824041|    0.011978|
|          78|   -5.298319|   -7.237760|    0.824042|    0.011978|
|          79|   -5.293923|   -7.235180|    0.824043|    0.011979|
|          80|   -5.289634|   -7.232612|    0.824043|    0.011980|
|          81|   -5.285461|   -7.230124|    0.824043|    0.011981|
|          82|   -5.281423|   -7.227787|    0.824043|    0.011982|
|          83|   -5.277545|   -7.225671|    0.824043|    0.011983|
|          84|   -5.273858|   -7.223841|    0.824043|    0.011984|
|          85|   -5.270395|   -7.222358|    0.824042|    0.011985|
|          86|   -5.267193|   -7.221276|    0.824042|    0.011986|
|          87|   -5.264285|   -7.220641|    0.824041|    0.011987|
|          88|   -5.261702|   -7.220488|    0.824041|    0.011988|
|          89|   -5.259468|   -7.220836|    0.824041|    0.011989|
|          90|   -5.257598|   -7.221690|    0.824041|    0.011990|
|          91|   -5.256098|   -7.223036|    0.824041|    0.011991|
|          92|   -5.254963|   -7.224841|    0.824041|    0.011992|
|          93|   -5.254177|   -7.227056|    0.824041|    0.011993|
|          94|   -5.253716|   -7.229613|    0.824041|    0.011994|
|          95|   -5.253547|   -7.232434|    0.824041|    0.011996|
|          96|   -5.253626|   -7.235435|    0.824042|    0.011997|
|          97|   -5.253907|   -7.238526|    0.824042|    0.011998|
|          98|   -5.254338|   -7.241627|    0.824043|    0.012000|
|          99|   -5.254866|   -7.244664|    0.824043|    0.012001|
|         100|   -5.255437|   -7.247578|    0.824044|    0.012003|
|         101|   -5.255999|   -7.250327|    0.824044|    0.012001|
+-----------------------------------------------------------------------+
|Fixed CL Mode                           |Value                         |
+-----------------------------------------------------------------------+
|Current CL                              |0.824044                      |
|Target CL                               |0.824                         |
|Previous AOA                            |2.77821                       |
|Changed AoA by                          |-0.000219666                  |
+-----------------------------------------------------------------------+
+----------------------------------------------------------------+
|  Inner_Iter|    rms[Rho]|     rms[nu]|          CL|          CD|
+----------------------------------------------------------------+
|         102|   -3.851090|   -7.244325|    0.824045|    0.012003|
|         103|   -4.232437|   -7.250931|    0.824045|    0.012004|
|         104|   -4.470440|   -7.254337|    0.824045|    0.012005|
|         105|   -4.548614|   -7.256988|    0.824045|    0.012007|
|         106|   -4.603638|   -7.259276|    0.824045|    0.012008|
|         107|   -4.674061|   -7.261318|    0.824045|    0.012009|
|         108|   -4.759501|   -7.263173|    0.824045|    0.012011|
|         109|   -4.846208|   -7.264892|    0.824044|    0.012012|
|         110|   -4.916724|   -7.266517|    0.824043|    0.012013|
|         111|   -4.962915|   -7.268085|    0.824042|    0.012014|
|         112|   -4.988011|   -7.269630|    0.824041|    0.012015|
|         113|   -4.998010|   -7.271198|    0.824039|    0.012016|
|         114|   -4.998415|   -7.272839|    0.824038|    0.012017|
|         115|   -4.995131|   -7.274599|    0.824036|    0.012017|
|         116|   -4.993481|   -7.276519|    0.824034|    0.012018|
|         117|   -4.996479|   -7.278638|    0.824032|    0.012018|
|         118|   -5.004368|   -7.280992|    0.824030|    0.012019|
|         119|   -5.015351|   -7.283616|    0.824028|    0.012019|
|         120|   -5.026907|   -7.286543|    0.824025|    0.012019|
|         121|   -5.037141|   -7.289802|    0.824023|    0.012019|
|         122|   -5.045518|   -7.293415|    0.824021|    0.012019|
|         123|   -5.052632|   -7.297399|    0.824018|    0.012019|
|         124|   -5.059427|   -7.301772|    0.824016|    0.012019|
|         125|   -5.066557|   -7.306549|    0.824014|    0.012019|
|         126|   -5.074213|   -7.311743|    0.824012|    0.012019|
|         127|   -5.082261|   -7.317363|    0.824010|    0.012018|
|         128|   -5.090431|   -7.323415|    0.824008|    0.012018|
|         129|   -5.098437|   -7.329896|    0.824006|    0.012018|
|         130|   -5.106015|   -7.336803|    0.824004|    0.012017|
|         131|   -5.112954|   -7.344117|    0.824003|    0.012017|
|         132|   -5.119144|   -7.351812|    0.824001|    0.012016|
|         133|   -5.124618|   -7.359851|    0.824000|    0.012016|
|         134|   -5.129542|   -7.368196|    0.823999|    0.012015|
|         135|   -5.134152|   -7.376793|    0.823998|    0.012015|
|         136|   -5.138672|   -7.385583|    0.823997|    0.012014|
|         137|   -5.143234|   -7.394501|    0.823996|    0.012014|
|         138|   -5.147838|   -7.403487|    0.823995|    0.012013|
|         139|   -5.152353|   -7.412476|    0.823994|    0.012013|
|         140|   -5.156540|   -7.421413|    0.823993|    0.012012|
|         141|   -5.160106|   -7.430244|    0.823992|    0.012012|
|         142|   -5.162779|   -7.438924|    0.823992|    0.012011|
|         143|   -5.164382|   -7.447416|    0.823991|    0.012011|
|         144|   -5.164885|   -7.455688|    0.823990|    0.012010|
|         145|   -5.164410|   -7.463718|    0.823989|    0.012009|
|         146|   -5.163199|   -7.471495|    0.823988|    0.012009|
|         147|   -5.161540|   -7.479010|    0.823987|    0.012008|
|         148|   -5.159704|   -7.486258|    0.823985|    0.012008|
|         149|   -5.157887|   -7.493232|    0.823984|    0.012007|
|         150|   -5.156193|   -7.499927|    0.823983|    0.012006|
|         151|   -5.154635|   -7.506332|    0.823981|    0.012005|
|         152|   -5.153162|   -7.512434|    0.823980|    0.012005|
|         153|   -5.151690|   -7.518218|    0.823978|    0.012004|
|         154|   -5.150136|   -7.523661|    0.823976|    0.012003|
|         155|   -5.148437|   -7.528734|    0.823975|    0.012002|
|         156|   -5.146567|   -7.533420|    0.823973|    0.012002|
|         157|   -5.144536|   -7.537712|    0.823971|    0.012001|
|         158|   -5.142382|   -7.541611|    0.823969|    0.012000|
|         159|   -5.140159|   -7.545125|    0.823967|    0.011999|
|         160|   -5.137926|   -7.548276|    0.823965|    0.011998|
|         161|   -5.135733|   -7.551095|    0.823963|    0.011997|
|         162|   -5.133621|   -7.553629|    0.823961|    0.011997|
|         163|   -5.131616|   -7.555935|    0.823960|    0.011996|
|         164|   -5.129732|   -7.558079|    0.823958|    0.011995|
|         165|   -5.127973|   -7.560133|    0.823956|    0.011994|
|         166|   -5.126337|   -7.562172|    0.823954|    0.011994|
|         167|   -5.124821|   -7.564268|    0.823953|    0.011993|
|         168|   -5.123417|   -7.566491|    0.823951|    0.011992|
|         169|   -5.122120|   -7.568911|    0.823950|    0.011991|
|         170|   -5.120922|   -7.571589|    0.823949|    0.011991|
|         171|   -5.119816|   -7.574572|    0.823948|    0.011990|
|         172|   -5.118796|   -7.577896|    0.823947|    0.011990|
|         173|   -5.117852|   -7.581585|    0.823946|    0.011989|
|         174|   -5.116977|   -7.585648|    0.823946|    0.011989|
|         175|   -5.116164|   -7.590084|    0.823945|    0.011988|
|         176|   -5.115405|   -7.594878|    0.823945|    0.011988|
|         177|   -5.114696|   -7.600005|    0.823945|    0.011987|
|         178|   -5.114030|   -7.605430|    0.823945|    0.011987|
|         179|   -5.113405|   -7.611111|    0.823945|    0.011987|
|         180|   -5.112816|   -7.616995|    0.823946|    0.011987|
|         181|   -5.112262|   -7.623022|    0.823946|    0.011986|
|         182|   -5.111739|   -7.629130|    0.823947|    0.011986|
|         183|   -5.111242|   -7.635255|    0.823948|    0.011986|
|         184|   -5.110768|   -7.641336|    0.823948|    0.011986|
|         185|   -5.110309|   -7.647320|    0.823950|    0.011986|
|         186|   -5.109857|   -7.653152|    0.823951|    0.011986|
|         187|   -5.109402|   -7.658782|    0.823952|    0.011986|
|         188|   -5.108934|   -7.664166|    0.823953|    0.011986|
|         189|   -5.108441|   -7.669268|    0.823955|    0.011986|
|         190|   -5.107909|   -7.674062|    0.823956|    0.011986|
|         191|   -5.107329|   -7.678531|    0.823958|    0.011987|
|         192|   -5.106690|   -7.682664|    0.823959|    0.011987|
|         193|   -5.105985|   -7.686460|    0.823961|    0.011987|
|         194|   -5.105208|   -7.689923|    0.823963|    0.011987|
|         195|   -5.104361|   -7.693061|    0.823964|    0.011987|
|         196|   -5.103449|   -7.695889|    0.823966|    0.011988|
|         197|   -5.102482|   -7.698422|    0.823968|    0.011988|
|         198|   -5.101478|   -7.700679|    0.823970|    0.011988|
|         199|   -5.100459|   -7.702681|    0.823971|    0.011989|
|         200|   -5.099454|   -7.704448|    0.823973|    0.011989|
|         201|   -5.098498|   -7.706002|    0.823975|    0.011991|
+-----------------------------------------------------------------------+
|Fixed CL Mode                           |Value                         |
+-----------------------------------------------------------------------+
|Current CL                              |0.823975                      |
|Target CL                               |0.824                         |
|Previous AOA                            |2.77799                       |
|Changed AoA by                          |0.000135025                   |
+-----------------------------------------------------------------------+
+----------------------------------------------------------------+
|  Inner_Iter|    rms[Rho]|     rms[nu]|          CL|          CD|
+----------------------------------------------------------------+
|         202|   -4.060953|   -7.682428|    0.823976|    0.011992|
|         203|   -4.437628|   -7.696663|    0.823978|    0.011992|
|         204|   -4.665051|   -7.701819|    0.823980|    0.011993|
|         205|   -4.733207|   -7.704798|    0.823981|    0.011993|
|         206|   -4.775258|   -7.706786|    0.823983|    0.011994|
|         207|   -4.825687|   -7.708179|    0.823984|    0.011994|
|         208|   -4.881839|   -7.709204|    0.823986|    0.011995|
|         209|   -4.932303|   -7.710036|    0.823987|    0.011995|
|         210|   -4.968863|   -7.710800|    0.823989|    0.011996|
|         211|   -4.992053|   -7.711560|    0.823990|    0.011996|
|         212|   -5.006431|   -7.712349|    0.823991|    0.011997|
|         213|   -5.015396|   -7.713197|    0.823992|    0.011997|
|         214|   -5.021021|   -7.714136|    0.823993|    0.011998|
|         215|   -5.025327|   -7.715185|    0.823994|    0.011999|
|         216|   -5.030347|   -7.716350|    0.823995|    0.011999|
|         217|   -5.037403|   -7.717634|    0.823996|    0.012000|
|         218|   -5.046699|   -7.719044|    0.823996|    0.012000|
|         219|   -5.057510|   -7.720603|    0.823997|    0.012001|
|         220|   -5.068796|   -7.722339|    0.823997|    0.012002|
|         221|   -5.079803|   -7.724280|    0.823998|    0.012002|
|         222|   -5.090347|   -7.726447|    0.823998|    0.012003|
|         223|   -5.100678|   -7.728855|    0.823998|    0.012004|
|         224|   -5.111126|   -7.731516|    0.823998|    0.012004|
|         225|   -5.121840|   -7.734439|    0.823998|    0.012005|
|         226|   -5.132723|   -7.737635|    0.823997|    0.012005|
|         227|   -5.143508|   -7.741117|    0.823997|    0.012006|
|         228|   -5.153886|   -7.744900|    0.823997|    0.012007|
|         229|   -5.163581|   -7.749002|    0.823996|    0.012007|
|         230|   -5.172384|   -7.753438|    0.823996|    0.012008|
|         231|   -5.180171|   -7.758220|    0.823995|    0.012008|
|         232|   -5.186922|   -7.763360|    0.823994|    0.012009|
|         233|   -5.192721|   -7.768864|    0.823993|    0.012009|
|         234|   -5.197736|   -7.774737|    0.823993|    0.012009|
|         235|   -5.202169|   -7.780973|    0.823992|    0.012010|
|         236|   -5.206205|   -7.787564|    0.823991|    0.012010|
|         237|   -5.209966|   -7.794497|    0.823990|    0.012011|
|         238|   -5.213497|   -7.801755|    0.823989|    0.012011|
|         239|   -5.216764|   -7.809314|    0.823988|    0.012011|
|         240|   -5.219683|   -7.817147|    0.823987|    0.012011|
|         241|   -5.222145|   -7.825223|    0.823986|    0.012012|
|         242|   -5.224062|   -7.833507|    0.823985|    0.012012|
|         243|   -5.225396|   -7.841962|    0.823984|    0.012012|
|         244|   -5.226186|   -7.850547|    0.823983|    0.012012|
|         245|   -5.226543|   -7.859221|    0.823982|    0.012012|
|         246|   -5.226634|   -7.867940|    0.823982|    0.012013|
|         247|   -5.226645|   -7.876661|    0.823981|    0.012013|
|         248|   -5.226753|   -7.885339|    0.823980|    0.012013|
|         249|   -5.227093|   -7.893934|    0.823980|    0.012013|
|         250|   -5.227752|   -7.902405|    0.823979|    0.012013|
|         251|   -5.228765|   -7.910718|    0.823978|    0.012013|
|         252|   -5.230131|   -7.918843|    0.823978|    0.012013|
|         253|   -5.231827|   -7.926756|    0.823978|    0.012013|
|         254|   -5.233826|   -7.934439|    0.823977|    0.012013|
|         255|   -5.236103|   -7.941885|    0.823977|    0.012012|
|         256|   -5.238653|   -7.949093|    0.823977|    0.012012|
|         257|   -5.241485|   -7.956069|    0.823977|    0.012012|
|         258|   -5.244619|   -7.962832|    0.823977|    0.012012|
|         259|   -5.248086|   -7.969405|    0.823977|    0.012012|
|         260|   -5.251917|   -7.975817|    0.823977|    0.012012|
|         261|   -5.256140|   -7.982104|    0.823977|    0.012011|
|         262|   -5.260773|   -7.988303|    0.823977|    0.012011|
|         263|   -5.265826|   -7.994452|    0.823978|    0.012011|
|         264|   -5.271300|   -8.000592|    0.823978|    0.012011|
|         265|   -5.277188|   -8.006759|    0.823978|    0.012010|
|         266|   -5.283475|   -8.012989|    0.823979|    0.012010|
|         267|   -5.290144|   -8.019318|    0.823979|    0.012010|
|         268|   -5.297172|   -8.025777|    0.823980|    0.012010|
|         269|   -5.304533|   -8.032397|    0.823980|    0.012009|
|         270|   -5.312198|   -8.039203|    0.823981|    0.012009|
|         271|   -5.320133|   -8.046211|    0.823981|    0.012009|
|         272|   -5.328301|   -8.053437|    0.823982|    0.012008|
|         273|   -5.336657|   -8.060888|    0.823982|    0.012008|
|         274|   -5.345151|   -8.068566|    0.823983|    0.012008|
|         275|   -5.353728|   -8.076464|    0.823984|    0.012007|
|         276|   -5.362327|   -8.084568|    0.823984|    0.012007|
|         277|   -5.370879|   -8.092855|    0.823985|    0.012006|
|         278|   -5.379316|   -8.101296|    0.823985|    0.012006|
|         279|   -5.387563|   -8.109852|    0.823986|    0.012006|
|         280|   -5.395547|   -8.118476|    0.823986|    0.012005|
|         281|   -5.403195|   -8.127114|    0.823986|    0.012005|
|         282|   -5.410435|   -8.135702|    0.823987|    0.012004|
|         283|   -5.417203|   -8.144175|    0.823987|    0.012004|
|         284|   -5.423443|   -8.152462|    0.823988|    0.012004|
|         285|   -5.429106|   -8.160492|    0.823988|    0.012003|
|         286|   -5.434157|   -8.168194|    0.823988|    0.012003|
|         287|   -5.438575|   -8.175505|    0.823989|    0.012003|
|         288|   -5.442350|   -8.182369|    0.823989|    0.012002|
|         289|   -5.445489|   -8.188739|    0.823989|    0.012002|
|         290|   -5.448012|   -8.194585|    0.823990|    0.012002|
|         291|   -5.449950|   -8.199891|    0.823990|    0.012001|
|         292|   -5.451344|   -8.204654|    0.823990|    0.012001|
|         293|   -5.452245|   -8.208887|    0.823990|    0.012001|
|         294|   -5.452707|   -8.212613|    0.823991|    0.012000|
|         295|   -5.452791|   -8.215868|    0.823991|    0.012000|
|         296|   -5.452555|   -8.218695|    0.823991|    0.012000|
|         297|   -5.452058|   -8.221139|    0.823991|    0.012000|
|         298|   -5.451356|   -8.223249|    0.823991|    0.011999|
|         299|   -5.450501|   -8.225070|    0.823992|    0.011999|
|         300|   -5.449542|   -8.226641|    0.823992|    0.011999|
|         301|   -5.448521|   -8.227995|    0.823992|    0.012000|
+-----------------------------------------------------------------------+
|Fixed CL Mode                           |Value                         |
+-----------------------------------------------------------------------+
|Current CL                              |0.823992                      |
|Target CL                               |0.824                         |
|Previous AOA                            |2.77812                       |
|Changed AoA by                          |4.05366e-05                   |
+-----------------------------------------------------------------------+
+----------------------------------------------------------------+
|  Inner_Iter|    rms[Rho]|     rms[nu]|          CL|          CD|
+----------------------------------------------------------------+
|         302|   -4.581705|   -8.204776|    0.823992|    0.011999|
|         303|   -4.949461|   -8.218751|    0.823993|    0.011999|
|         304|   -5.156301|   -8.223884|    0.823993|    0.011999|
|         305|   -5.212259|   -8.226863|    0.823993|    0.011999|
|         306|   -5.245091|   -8.228714|    0.823994|    0.011999|
|         307|   -5.283073|   -8.229739|    0.823994|    0.011999|
|         308|   -5.322701|   -8.230113|    0.823994|    0.011999|
|         309|   -5.355357|   -8.229974|    0.823994|    0.011999|
|         310|   -5.376922|   -8.229419|    0.823995|    0.011999|
|         311|   -5.389453|   -8.228502|    0.823995|    0.011999|
|         312|   -5.396598|   -8.227251|    0.823996|    0.011999|
|         313|   -5.400622|   -8.225700|    0.823996|    0.011999|
|         314|   -5.402740|   -8.223884|    0.823996|    0.011999|
|         315|   -5.404034|   -8.221821|    0.823997|    0.011999|
|         316|   -5.405557|   -8.219506|    0.823997|    0.011999|
|         317|   -5.407989|   -8.216927|    0.823998|    0.012000|
|         318|   -5.411431|   -8.214075|    0.823998|    0.012000|
|         319|   -5.415541|   -8.210950|    0.823998|    0.012000|
|         320|   -5.419861|   -8.207559|    0.823999|    0.012000|
|         321|   -5.424113|   -8.203917|    0.823999|    0.012000|
|         322|   -5.428279|   -8.200040|    0.824000|    0.012000|
|         323|   -5.432506|   -8.195949|    0.824000|    0.012001|
|         324|   -5.436939|   -8.191669|    0.824001|    0.012001|
|         325|   -5.441621|   -8.187232|    0.824001|    0.012001|
|         326|   -5.446493|   -8.182675|    0.824002|    0.012001|
|         327|   -5.451442|   -8.178042|    0.824003|    0.012001|
|         328|   -5.456370|   -8.173382|    0.824003|    0.012002|
|         329|   -5.461218|   -8.168748|    0.824004|    0.012002|
|         330|   -5.465980|   -8.164188|    0.824004|    0.012002|
|         331|   -5.470694|   -8.159751|    0.824005|    0.012002|
|         332|   -5.475431|   -8.155483|    0.824005|    0.012003|
|         333|   -5.480287|   -8.151427|    0.824006|    0.012003|
|         334|   -5.485361|   -8.147618|    0.824006|    0.012003|
|         335|   -5.490739|   -8.144083|    0.824007|    0.012003|
|         336|   -5.496473|   -8.140847|    0.824008|    0.012004|
|         337|   -5.502574|   -8.137928|    0.824008|    0.012004|
|         338|   -5.509007|   -8.135342|    0.824009|    0.012004|
|         339|   -5.515701|   -8.133102|    0.824009|    0.012004|
|         340|   -5.522557|   -8.131219|    0.824010|    0.012004|
|         341|   -5.529465|   -8.129704|    0.824010|    0.012005|
|         342|   -5.536317|   -8.128567|    0.824010|    0.012005|
|         343|   -5.543024|   -8.127816|    0.824011|    0.012005|
|         344|   -5.549525|   -8.127460|    0.824011|    0.012005|
|         345|   -5.555790|   -8.127507|    0.824011|    0.012005|
|         346|   -5.561814|   -8.127960|    0.824012|    0.012005|
|         347|   -5.567606|   -8.128825|    0.824012|    0.012006|
|         348|   -5.573174|   -8.130102|    0.824012|    0.012006|
|         349|   -5.578516|   -8.131787|    0.824012|    0.012006|
|         350|   -5.583610|   -8.133874|    0.824012|    0.012006|
|         351|   -5.588413|   -8.136351|    0.824012|    0.012006|
|         352|   -5.592871|   -8.139200|    0.824012|    0.012006|
|         353|   -5.596920|   -8.142402|    0.824012|    0.012006|
|         354|   -5.600501|   -8.145927|    0.824012|    0.012006|
|         355|   -5.603568|   -8.149735|    0.824012|    0.012006|
|         356|   -5.606091|   -8.153781|    0.824012|    0.012006|
|         357|   -5.608059|   -8.158006|    0.824012|    0.012006|
|         358|   -5.609478|   -8.162343|    0.824012|    0.012006|
|         359|   -5.610371|   -8.166721|    0.824012|    0.012006|
|         360|   -5.610768|   -8.171057|    0.824012|    0.012006|
|         361|   -5.610710|   -8.175265|    0.824011|    0.012006|
|         362|   -5.610239|   -8.179256|    0.824011|    0.012006|
|         363|   -5.609400|   -8.182937|    0.824011|    0.012006|
|         364|   -5.608240|   -8.186222|    0.824010|    0.012006|
|         365|   -5.606808|   -8.189030|    0.824010|    0.012006|
|         366|   -5.605153|   -8.191293|    0.824010|    0.012006|
|         367|   -5.603328|   -8.192958|    0.824009|    0.012006|
|         368|   -5.601386|   -8.193992|    0.824009|    0.012006|
|         369|   -5.599379|   -8.194383|    0.824009|    0.012006|
|         370|   -5.597361|   -8.194141|    0.824008|    0.012006|
|         371|   -5.595382|   -8.193304|    0.824008|    0.012006|
|         372|   -5.593493|   -8.191923|    0.824008|    0.012005|
|         373|   -5.591739|   -8.190069|    0.824007|    0.012005|
|         374|   -5.590164|   -8.187826|    0.824007|    0.012005|
|         375|   -5.588808|   -8.185286|    0.824007|    0.012005|
|         376|   -5.587705|   -8.182547|    0.824006|    0.012005|
|         377|   -5.586889|   -8.179704|    0.824006|    0.012005|
|         378|   -5.586387|   -8.176849|    0.824006|    0.012005|
|         379|   -5.586226|   -8.174073|    0.824005|    0.012005|
|         380|   -5.586425|   -8.171449|    0.824005|    0.012005|
|         381|   -5.587004|   -8.169042|    0.824005|    0.012004|
|         382|   -5.587976|   -8.166902|    0.824005|    0.012004|
|         383|   -5.589352|   -8.165072|    0.824004|    0.012004|
|         384|   -5.591141|   -8.163582|    0.824004|    0.012004|
|         385|   -5.593345|   -8.162451|    0.824004|    0.012004|
|         386|   -5.595967|   -8.161688|    0.824004|    0.012004|
|         387|   -5.599003|   -8.161293|    0.824003|    0.012004|
|         388|   -5.602450|   -8.161260|    0.824003|    0.012004|
|         389|   -5.606297|   -8.161574|    0.824003|    0.012004|
|         390|   -5.610533|   -8.162217|    0.824003|    0.012003|
|         391|   -5.615143|   -8.163164|    0.824003|    0.012003|
|         392|   -5.620108|   -8.164389|    0.824003|    0.012003|
|         393|   -5.625407|   -8.165864|    0.824003|    0.012003|
|         394|   -5.631015|   -8.167560|    0.824003|    0.012003|
|         395|   -5.636904|   -8.169446|    0.824002|    0.012003|
|         396|   -5.643043|   -8.171495|    0.824002|    0.012003|
|         397|   -5.649395|   -8.173679|    0.824002|    0.012003|
|         398|   -5.655924|   -8.175971|    0.824002|    0.012003|
|         399|   -5.662589|   -8.178349|    0.824003|    0.012003|
|         400|   -5.669346|   -8.180790|    0.824003|    0.012003|
|         401|   -5.676149|   -8.183276|    0.824003|    0.012003|
+-----------------------------------------------------------------------+
|Fixed CL Mode                           |Value                         |
+-----------------------------------------------------------------------+
|Current CL                              |0.824003                      |
|Target CL                               |0.824                         |
|Previous AOA                            |2.77816                       |
|Changed AoA by                          |-1.2881e-05                   |
+-----------------------------------------------------------------------+
+----------------------------------------------------------------+
|  Inner_Iter|    rms[Rho]|     rms[nu]|          CL|          CD|
+----------------------------------------------------------------+
|         402|   -5.069506|   -8.183092|    0.824003|    0.012003|
|         403|   -5.397576|   -8.186791|    0.824003|    0.012003|
|         404|   -5.545543|   -8.189710|    0.824003|    0.012003|
|         405|   -5.582994|   -8.192456|    0.824003|    0.012003|
|         406|   -5.607765|   -8.195115|    0.824003|    0.012003|
|         407|   -5.635273|   -8.197713|    0.824004|    0.012003|
|         408|   -5.662682|   -8.200268|    0.824004|    0.012003|
|         409|   -5.685476|   -8.202796|    0.824004|    0.012003|
|         410|   -5.702072|   -8.205308|    0.824004|    0.012003|
|         411|   -5.713698|   -8.207812|    0.824005|    0.012003|
|         412|   -5.722058|   -8.210314|    0.824005|    0.012003|
|         413|   -5.728155|   -8.212822|    0.824005|    0.012003|
|         414|   -5.732545|   -8.215343|    0.824006|    0.012003|
|         415|   -5.735769|   -8.217886|    0.824006|    0.012003|
|         416|   -5.738393|   -8.220454|    0.824006|    0.012003|
|         417|   -5.740818|   -8.223052|    0.824007|    0.012003|
|         418|   -5.743157|   -8.225682|    0.824007|    0.012003|
|         419|   -5.745286|   -8.228347|    0.824008|    0.012003|
|         420|   -5.747010|   -8.231047|    0.824008|    0.012003|
|         421|   -5.748211|   -8.233782|    0.824009|    0.012003|
|         422|   -5.748888|   -8.236546|    0.824009|    0.012004|
|         423|   -5.749119|   -8.239329|    0.824009|    0.012004|
|         424|   -5.748987|   -8.242117|    0.824010|    0.012004|
|         425|   -5.748540|   -8.244892|    0.824010|    0.012004|
|         426|   -5.747795|   -8.247631|    0.824011|    0.012004|
|         427|   -5.746761|   -8.250309|    0.824012|    0.012004|
|         428|   -5.745458|   -8.252894|    0.824012|    0.012004|
|         429|   -5.743927|   -8.255354|    0.824013|    0.012004|
|         430|   -5.742223|   -8.257652|    0.824013|    0.012004|
|         431|   -5.740407|   -8.259753|    0.824014|    0.012004|
|         432|   -5.738543|   -8.261619|    0.824014|    0.012004|
|         433|   -5.736694|   -8.263216|    0.824015|    0.012004|
|         434|   -5.734913|   -8.264515|    0.824015|    0.012004|
|         435|   -5.733247|   -8.265490|    0.824016|    0.012005|
|         436|   -5.731729|   -8.266122|    0.824016|    0.012005|
|         437|   -5.730380|   -8.266404|    0.824017|    0.012005|
|         438|   -5.729214|   -8.266335|    0.824017|    0.012005|
|         439|   -5.728237|   -8.265926|    0.824018|    0.012005|
|         440|   -5.727452|   -8.265196|    0.824018|    0.012005|
|         441|   -5.726863|   -8.264175|    0.824019|    0.012005|
|         442|   -5.726476|   -8.262901|    0.824019|    0.012005|
|         443|   -5.726302|   -8.261418|    0.824020|    0.012005|
|         444|   -5.726357|   -8.259774|    0.824020|    0.012005|
|         445|   -5.726662|   -8.258023|    0.824020|    0.012005|
|         446|   -5.727241|   -8.256221|    0.824021|    0.012005|
|         447|   -5.728114|   -8.254422|    0.824021|    0.012005|
|         448|   -5.729301|   -8.252679|    0.824021|    0.012005|
|         449|   -5.730816|   -8.251042|    0.824022|    0.012005|
|         450|   -5.732666|   -8.249557|    0.824022|    0.012005|
|         451|   -5.734853|   -8.248266|    0.824022|    0.012005|
|         452|   -5.737374|   -8.247205|    0.824022|    0.012005|
|         453|   -5.740222|   -8.246405|    0.824023|    0.012005|
|         454|   -5.743388|   -8.245890|    0.824023|    0.012005|
|         455|   -5.746862|   -8.245679|    0.824023|    0.012005|
|         456|   -5.750632|   -8.245785|    0.824023|    0.012005|
|         457|   -5.754686|   -8.246216|    0.824023|    0.012005|
|         458|   -5.759012|   -8.246971|    0.824023|    0.012005|
|         459|   -5.763593|   -8.248046|    0.824023|    0.012005|
|         460|   -5.768413|   -8.249432|    0.824023|    0.012005|
|         461|   -5.773450|   -8.251112|    0.824023|    0.012005|
|         462|   -5.778678|   -8.253066|    0.824023|    0.012005|
|         463|   -5.784068|   -8.255270|    0.824023|    0.012005|
|         464|   -5.789586|   -8.257695|    0.824023|    0.012005|
|         465|   -5.795196|   -8.260307|    0.824023|    0.012005|
|         466|   -5.800855|   -8.263072|    0.824023|    0.012005|
|         467|   -5.806521|   -8.265952|    0.824023|    0.012004|
|         468|   -5.812147|   -8.268909|    0.824022|    0.012004|
|         469|   -5.817683|   -8.271905|    0.824022|    0.012004|
|         470|   -5.823081|   -8.274900|    0.824022|    0.012004|
|         471|   -5.828288|   -8.277860|    0.824022|    0.012004|
|         472|   -5.833256|   -8.280751|    0.824022|    0.012004|
|         473|   -5.837934|   -8.283542|    0.824022|    0.012004|
|         474|   -5.842278|   -8.286208|    0.824021|    0.012004|
|         475|   -5.846245|   -8.288729|    0.824021|    0.012003|
|         476|   -5.849798|   -8.291088|    0.824021|    0.012003|
|         477|   -5.852906|   -8.293277|    0.824021|    0.012003|
|         478|   -5.855548|   -8.295292|    0.824021|    0.012003|
|         479|   -5.857709|   -8.297134|    0.824021|    0.012003|
|         480|   -5.859385|   -8.298811|    0.824021|    0.012003|
|         481|   -5.860581|   -8.300333|    0.824021|    0.012003|
|         482|   -5.861310|   -8.301715|    0.824020|    0.012002|
|         483|   -5.861597|   -8.302975|    0.824020|    0.012002|
|         484|   -5.861473|   -8.304131|    0.824020|    0.012002|
|         485|   -5.860977|   -8.305205|    0.824020|    0.012002|
|         486|   -5.860153|   -8.306217|    0.824020|    0.012002|
|         487|   -5.859052|   -8.307187|    0.824020|    0.012002|
|         488|   -5.857725|   -8.308133|    0.824020|    0.012002|
|         489|   -5.856228|   -8.309067|    0.824020|    0.012001|
|         490|   -5.854616|   -8.310002|    0.824020|    0.012001|
|         491|   -5.852943|   -8.310947|    0.824020|    0.012001|
|         492|   -5.851264|   -8.311915|    0.824020|    0.012001|
|         493|   -5.849629|   -8.312905|    0.824020|    0.012001|
|         494|   -5.848086|   -8.313914|    0.824020|    0.012001|
|         495|   -5.846682|   -8.314940|    0.824020|    0.012001|
|         496|   -5.845457|   -8.315977|    0.824020|    0.012001|
|         497|   -5.844450|   -8.317021|    0.824020|    0.012001|
|         498|   -5.843695|   -8.318065|    0.824020|    0.012001|
|         499|   -5.843222|   -8.319102|    0.824020|    0.012001|
|         500|   -5.843057|   -8.320123|    0.824021|    0.012001|
|         501|   -5.843224|   -8.321122|    0.824021|    0.011999|
+-----------------------------------------------------------------------+
|Fixed CL Mode                           |Value                         |
+-----------------------------------------------------------------------+
|Current CL                              |0.824021                      |
|Target CL                               |0.824                         |
|Previous AOA                            |2.77815                       |
|Changed AoA by                          |-0.000102939                  |
+-----------------------------------------------------------------------+
+----------------------------------------------------------------+
|  Inner_Iter|    rms[Rho]|     rms[nu]|          CL|          CD|
+----------------------------------------------------------------+
|         502|   -4.180723|   -8.149258|    0.824021|    0.011999|
|         503|   -4.564890|   -8.221155|    0.824021|    0.011999|
|         504|   -4.807861|   -8.248007|    0.824021|    0.011999|
|         505|   -4.885632|   -8.264005|    0.824021|    0.011999|
|         506|   -4.938367|   -8.275684|    0.824021|    0.011999|
|         507|   -5.006851|   -8.284713|    0.824022|    0.011999|
|         508|   -5.091296|   -8.291755|    0.824022|    0.011999|
|         509|   -5.178942|   -8.297310|    0.824022|    0.011999|
|         510|   -5.253767|   -8.301733|    0.824022|    0.011999|
|         511|   -5.308098|   -8.305179|    0.824022|    0.011999|
|         512|   -5.343917|   -8.307782|    0.824023|    0.011999|
|         513|   -5.365097|   -8.309824|    0.824023|    0.011999|
|         514|   -5.375278|   -8.311684|    0.824023|    0.011999|
|         515|   -5.379836|   -8.313601|    0.824023|    0.011999|
|         516|   -5.384902|   -8.315658|    0.824024|    0.011999|
|         517|   -5.394658|   -8.317804|    0.824024|    0.011999|
|         518|   -5.410129|   -8.320004|    0.824024|    0.011999|
|         519|   -5.429680|   -8.322279|    0.824024|    0.012000|
|         520|   -5.450435|   -8.324697|    0.824025|    0.012000|
|         521|   -5.469995|   -8.327297|    0.824025|    0.012000|
|         522|   -5.487603|   -8.330068|    0.824025|    0.012000|
|         523|   -5.504040|   -8.332933|    0.824025|    0.012000|
|         524|   -5.520552|   -8.335786|    0.824026|    0.012000|
|         525|   -5.537857|   -8.338512|    0.824026|    0.012000|
|         526|   -5.555809|   -8.341043|    0.824026|    0.012000|
|         527|   -5.573631|   -8.343332|    0.824026|    0.012001|
|         528|   -5.590328|   -8.345357|    0.824027|    0.012001|
|         529|   -5.605021|   -8.347114|    0.824027|    0.012001|
|         530|   -5.617142|   -8.348607|    0.824027|    0.012001|
|         531|   -5.626530|   -8.349846|    0.824027|    0.012001|
|         532|   -5.633494|   -8.350851|    0.824028|    0.012001|
|         533|   -5.638767|   -8.351618|    0.824028|    0.012002|
|         534|   -5.643342|   -8.352139|    0.824028|    0.012002|
|         535|   -5.648228|   -8.352398|    0.824028|    0.012002|
|         536|   -5.654223|   -8.352364|    0.824028|    0.012002|
|         537|   -5.661785|   -8.352006|    0.824028|    0.012002|
|         538|   -5.670983|   -8.351294|    0.824028|    0.012002|
|         539|   -5.681516|   -8.350203|    0.824028|    0.012002|
|         540|   -5.692768|   -8.348718|    0.824028|    0.012003|
|         541|   -5.703913|   -8.346837|    0.824028|    0.012003|
|         542|   -5.714083|   -8.344576|    0.824028|    0.012003|
|         543|   -5.722582|   -8.341968|    0.824028|    0.012003|
|         544|   -5.729093|   -8.339052|    0.824028|    0.012003|
|         545|   -5.733760|   -8.335879|    0.824028|    0.012003|
|         546|   -5.737127|   -8.332503|    0.824028|    0.012003|
|         547|   -5.739946|   -8.328981|    0.824028|    0.012004|
|         548|   -5.742955|   -8.325367|    0.824027|    0.012004|
|         549|   -5.746717|   -8.321710|    0.824027|    0.012004|
|         550|   -5.751530|   -8.318059|    0.824027|    0.012004|
|         551|   -5.757427|   -8.314461|    0.824026|    0.012004|
|         552|   -5.764226|   -8.310960|    0.824026|    0.012004|
|         553|   -5.771609|   -8.307597|    0.824026|    0.012004|
|         554|   -5.779217|   -8.304427|    0.824025|    0.012004|
|         555|   -5.786731|   -8.301482|    0.824025|    0.012004|
|         556|   -5.793937|   -8.298809|    0.824024|    0.012004|
|         557|   -5.800757|   -8.296450|    0.824023|    0.012004|
|         558|   -5.807237|   -8.294453|    0.824023|    0.012004|
|         559|   -5.813516|   -8.292865|    0.824022|    0.012004|
|         560|   -5.819778|   -8.291734|    0.824021|    0.012004|
|         561|   -5.826200|   -8.291106|    0.824020|    0.012004|
|         562|   -5.832930|   -8.291022|    0.824020|    0.012004|
|         563|   -5.840063|   -8.291521|    0.824019|    0.012004|
|         564|   -5.847645|   -8.292631|    0.824018|    0.012004|
|         565|   -5.855685|   -8.294383|    0.824017|    0.012004|
|         566|   -5.864166|   -8.296799|    0.824016|    0.012004|
|         567|   -5.873061|   -8.299890|    0.824015|    0.012004|
|         568|   -5.882343|   -8.303656|    0.824014|    0.012004|
|         569|   -5.891989|   -8.308085|    0.824013|    0.012004|
|         570|   -5.901985|   -8.313149|    0.824012|    0.012004|
|         571|   -5.912316|   -8.318802|    0.824011|    0.012004|
|         572|   -5.922967|   -8.324978|    0.824011|    0.012004|
|         573|   -5.933919|   -8.331588|    0.824010|    0.012004|
|         574|   -5.945139|   -8.338519|    0.824009|    0.012003|
|         575|   -5.956582|   -8.345636|    0.824008|    0.012003|
|         576|   -5.968192|   -8.352780|    0.824007|    0.012003|
|         577|   -5.979900|   -8.359774|    0.824007|    0.012003|
|         578|   -5.991627|   -8.366424|    0.824006|    0.012003|
|         579|   -6.003283|   -8.372536|    0.824005|    0.012003|
|         580|   -6.014776|   -8.377918|    0.824005|    0.012003|
|         581|   -6.026008|   -8.382402|    0.824004|    0.012002|
|         582|   -6.036879|   -8.385852|    0.824004|    0.012002|
|         583|   -6.047290|   -8.388179|    0.824003|    0.012002|
|         584|   -6.057146|   -8.389348|    0.824003|    0.012002|
|         585|   -6.066361|   -8.389387|    0.824003|    0.012002|
|         586|   -6.074858|   -8.388380|    0.824003|    0.012002|
|         587|   -6.082572|   -8.386467|    0.824003|    0.012002|
|         588|   -6.089458|   -8.383825|    0.824003|    0.012001|
|         589|   -6.095490|   -8.380657|    0.824003|    0.012001|
|         590|   -6.100659|   -8.377181|    0.824003|    0.012001|
|         591|   -6.104979|   -8.373615|    0.824003|    0.012001|
|         592|   -6.108483|   -8.370163|    0.824003|    0.012001|
|         593|   -6.111217|   -8.367017|    0.824003|    0.012001|
|         594|   -6.113243|   -8.364344|    0.824004|    0.012001|
|         595|   -6.114632|   -8.362289|    0.824004|    0.012000|
|         596|   -6.115463|   -8.360970|    0.824004|    0.012000|
|         597|   -6.115815|   -8.360483|    0.824005|    0.012000|
|         598|   -6.115772|   -8.360900|    0.824005|    0.012000|
|         599|   -6.115413|   -8.362269|    0.824006|    0.012000|
|         600|   -6.114815|   -8.364620|    0.824006|    0.012000|
|         601|   -6.114053|   -8.367961|    0.824007|    0.011999|
+-----------------------------------------------------------------------+
|Fixed CL Mode                           |Value                         |
+-----------------------------------------------------------------------+
|Current CL                              |0.824007                      |
|Target CL                               |0.824                         |
|Previous AOA                            |2.77805                       |
|Changed AoA by                          |-3.20569e-05                  |
+-----------------------------------------------------------------------+
+----------------------------------------------------------------+
|  Inner_Iter|    rms[Rho]|     rms[nu]|          CL|          CD|
+----------------------------------------------------------------+
|         602|   -4.687089|   -8.341449|    0.824008|    0.011999|
|         603|   -5.068311|   -8.361383|    0.824008|    0.011999|
|         604|   -5.302981|   -8.372145|    0.824009|    0.011999|
|         605|   -5.376073|   -8.381677|    0.824009|    0.011999|
|         606|   -5.426382|   -8.391144|    0.824010|    0.011999|
|         607|   -5.491582|   -8.400758|    0.824011|    0.011999|
|         608|   -5.570927|   -8.410542|    0.824011|    0.011998|
|         609|   -5.652147|   -8.420469|    0.824012|    0.011998|
|         610|   -5.721297|   -8.430462|    0.824013|    0.011998|
|         611|   -5.772607|   -8.440385|    0.824013|    0.011998|
|         612|   -5.808126|   -8.450073|    0.824014|    0.011998|
|         613|   -5.830826|   -8.459374|    0.824015|    0.011998|
|         614|   -5.843257|   -8.468155|    0.824015|    0.011998|
|         615|   -5.849640|   -8.476282|    0.824016|    0.011998|
|         616|   -5.855245|   -8.483604|    0.824016|    0.011998|
|         617|   -5.863946|   -8.489982|    0.824017|    0.011998|
|         618|   -5.876950|   -8.495329|    0.824017|    0.011998|
|         619|   -5.893189|   -8.499611|    0.824018|    0.011998|
|         620|   -5.910601|   -8.502844|    0.824018|    0.011998|
|         621|   -5.927562|   -8.505081|    0.824019|    0.011998|
|         622|   -5.943691|   -8.506406|    0.824019|    0.011998|
|         623|   -5.959639|   -8.506924|    0.824020|    0.011998|
|         624|   -5.976240|   -8.506728|    0.824020|    0.011998|
|         625|   -5.993789|   -8.505930|    0.824020|    0.011998|
|         626|   -6.011857|   -8.504655|    0.824021|    0.011998|
|         627|   -6.029534|   -8.503036|    0.824021|    0.011998|
|         628|   -6.045821|   -8.501206|    0.824021|    0.011998|
|         629|   -6.059955|   -8.499288|    0.824021|    0.011998|
|         630|   -6.071567|   -8.497395|    0.824021|    0.011999|
|         631|   -6.080724|   -8.495622|    0.824022|    0.011999|
|         632|   -6.087896|   -8.494044|    0.824022|    0.011999|
|         633|   -6.093845|   -8.492714|    0.824022|    0.011999|
|         634|   -6.099451|   -8.491665|    0.824022|    0.011999|
|         635|   -6.105519|   -8.490913|    0.824022|    0.011999|
|         636|   -6.112612|   -8.490452|    0.824022|    0.011999|
|         637|   -6.120967|   -8.490270|    0.824022|    0.011999|
|         638|   -6.130480|   -8.490339|    0.824022|    0.011999|
|         639|   -6.140735|   -8.490632|    0.824022|    0.012000|
|         640|   -6.151080|   -8.491115|    0.824022|    0.012000|
|         641|   -6.160738|   -8.491755|    0.824022|    0.012000|
|         642|   -6.168975|   -8.492523|    0.824021|    0.012000|
|         643|   -6.175278|   -8.493390|    0.824021|    0.012000|
|         644|   -6.179496|   -8.494335|    0.824021|    0.012000|
|         645|   -6.181877|   -8.495337|    0.824021|    0.012000|
|         646|   -6.182970|   -8.496385|    0.824021|    0.012000|
|         647|   -6.183451|   -8.497465|    0.824021|    0.012001|
|         648|   -6.183944|   -8.498568|    0.824020|    0.012001|
|         649|   -6.184900|   -8.499688|    0.824020|    0.012001|
|         650|   -6.186543|   -8.500816|    0.824020|    0.012001|
|         651|   -6.188892|   -8.501947|    0.824020|    0.012001|
|         652|   -6.191807|   -8.503069|    0.824019|    0.012001|
|         653|   -6.195066|   -8.504171|    0.824019|    0.012001|
|         654|   -6.198440|   -8.505237|    0.824019|    0.012002|
|         655|   -6.201749|   -8.506254|    0.824019|    0.012002|
|         656|   -6.204903|   -8.507199|    0.824018|    0.012002|
|         657|   -6.207907|   -8.508045|    0.824018|    0.012002|
|         658|   -6.210845|   -8.508765|    0.824018|    0.012002|
|         659|   -6.213852|   -8.509331|    0.824018|    0.012002|
|         660|   -6.217079|   -8.509717|    0.824017|    0.012002|
|         661|   -6.220663|   -8.509902|    0.824017|    0.012003|
|         662|   -6.224712|   -8.509869|    0.824017|    0.012003|
|         663|   -6.229297|   -8.509608|    0.824016|    0.012003|
|         664|   -6.234459|   -8.509120|    0.824016|    0.012003|
|         665|   -6.240209|   -8.508415|    0.824016|    0.012003|
|         666|   -6.246548|   -8.507515|    0.824015|    0.012003|
|         667|   -6.253469|   -8.506455|    0.824015|    0.012003|
|         668|   -6.260964|   -8.505275|    0.824015|    0.012003|
|         669|   -6.269031|   -8.504028|    0.824014|    0.012003|
|         670|   -6.277667|   -8.502773|    0.824014|    0.012003|
|         671|   -6.286871|   -8.501573|    0.824013|    0.012003|
|         672|   -6.296640|   -8.500490|    0.824013|    0.012004|
|         673|   -6.306964|   -8.499587|    0.824013|    0.012004|
|         674|   -6.317824|   -8.498921|    0.824012|    0.012004|
|         675|   -6.329190|   -8.498542|    0.824012|    0.012004|
|         676|   -6.341022|   -8.498488|    0.824012|    0.012004|
|         677|   -6.353266|   -8.498788|    0.824011|    0.012004|
|         678|   -6.365857|   -8.499457|    0.824011|    0.012004|
|         679|   -6.378719|   -8.500494|    0.824011|    0.012004|
|         680|   -6.391760|   -8.501884|    0.824010|    0.012004|
|         681|   -6.404881|   -8.503595|    0.824010|    0.012004|
|         682|   -6.417970|   -8.505580|    0.824010|    0.012004|
|         683|   -6.430905|   -8.507778|    0.824009|    0.012004|
|         684|   -6.443555|   -8.510115|    0.824009|    0.012004|
|         685|   -6.455787|   -8.512508|    0.824009|    0.012004|
|         686|   -6.467462|   -8.514866|    0.824009|    0.012004|
|         687|   -6.478447|   -8.517097|    0.824008|    0.012004|
|         688|   -6.488617|   -8.519112|    0.824008|    0.012003|
|         689|   -6.497862|   -8.520829|    0.824008|    0.012003|
|         690|   -6.506091|   -8.522181|    0.824008|    0.012003|
|         691|   -6.513240|   -8.523119|    0.824008|    0.012003|
|         692|   -6.519272|   -8.523613|    0.824008|    0.012003|
|         693|   -6.524182|   -8.523660|    0.824008|    0.012003|
|         694|   -6.527994|   -8.523278|    0.824007|    0.012003|
|         695|   -6.530759|   -8.522510|    0.824007|    0.012003|
|         696|   -6.532554|   -8.521416|    0.824007|    0.012003|
|         697|   -6.533474|   -8.520070|    0.824007|    0.012003|
|         698|   -6.533628|   -8.518559|    0.824007|    0.012003|
|         699|   -6.533132|   -8.516971|    0.824007|    0.012002|
|         700|   -6.532107|   -8.515396|    0.824007|    0.012002|
|         701|   -6.530672|   -8.513916|    0.824008|    0.012002|
+-----------------------------------------------------------------------+
|Fixed CL Mode                           |Value                         |
+-----------------------------------------------------------------------+
|Current CL                              |0.824008                      |
|Target CL                               |0.824                         |
|Previous AOA                            |2.77802                       |
|Changed AoA by                          |-3.72816e-05                  |
+-----------------------------------------------------------------------+
+----------------------------------------------------------------+
|  Inner_Iter|    rms[Rho]|     rms[nu]|          CL|          CD|
+----------------------------------------------------------------+
|         702|   -4.621861|   -8.441570|    0.824008|    0.012002|
|         703|   -5.005318|   -8.473649|    0.824008|    0.012001|
|         704|   -5.245790|   -8.483583|    0.824008|    0.012001|
|         705|   -5.322287|   -8.489088|    0.824008|    0.012001|
|         706|   -5.374999|   -8.493144|    0.824008|    0.012001|
|         707|   -5.443925|   -8.496503|    0.824008|    0.012001|
|         708|   -5.529420|   -8.499449|    0.824008|    0.012001|
|         709|   -5.619362|   -8.502158|    0.824009|    0.012001|
|         710|   -5.698217|   -8.504728|    0.824009|    0.012001|
|         711|   -5.757843|   -8.507173|    0.824009|    0.012001|
|         712|   -5.799039|   -8.509492|    0.824009|    0.012000|
|         713|   -5.824518|   -8.511714|    0.824009|    0.012000|
|         714|   -5.837248|   -8.513896|    0.824010|    0.012000|
|         715|   -5.842796|   -8.516067|    0.824010|    0.012000|
|         716|   -5.848055|   -8.518191|    0.824010|    0.012000|
|         717|   -5.857910|   -8.520212|    0.824010|    0.012000|
|         718|   -5.873756|   -8.522087|    0.824010|    0.012000|
|         719|   -5.894035|   -8.523804|    0.824011|    0.012000|
|         720|   -5.915779|   -8.525377|    0.824011|    0.012000|
|         721|   -5.936473|   -8.526826|    0.824011|    0.012000|
|         722|   -5.955330|   -8.528159|    0.824011|    0.012000|
|         723|   -5.973193|   -8.529365|    0.824011|    0.012000|
|         724|   -5.991388|   -8.530430|    0.824012|    0.011999|
|         725|   -6.010623|   -8.531360|    0.824012|    0.011999|
|         726|   -6.030623|   -8.532165|    0.824012|    0.011999|
|         727|   -6.050393|   -8.532864|    0.824012|    0.011999|
|         728|   -6.068702|   -8.533490|    0.824012|    0.011999|
|         729|   -6.084499|   -8.534082|    0.824012|    0.011999|
|         730|   -6.097156|   -8.534678|    0.824012|    0.011999|
|         731|   -6.106589|   -8.535319|    0.824013|    0.011999|
|         732|   -6.113284|   -8.536040|    0.824013|    0.011999|
|         733|   -6.118207|   -8.536867|    0.824013|    0.011999|
|         734|   -6.122573|   -8.537815|    0.824013|    0.011999|
|         735|   -6.127553|   -8.538887|    0.824013|    0.011999|
|         736|   -6.134034|   -8.540079|    0.824013|    0.011999|
|         737|   -6.142483|   -8.541375|    0.824013|    0.011999|
|         738|   -6.152915|   -8.542753|    0.824013|    0.011999|
|         739|   -6.164914|   -8.544189|    0.824013|    0.011999|
|         740|   -6.177691|   -8.545654|    0.824013|    0.011999|
|         741|   -6.190199|   -8.547123|    0.824013|    0.011999|
|         742|   -6.201339|   -8.548571|    0.824013|    0.011999|
|         743|   -6.210241|   -8.549976|    0.824013|    0.011999|
|         744|   -6.216518|   -8.551320|    0.824013|    0.011999|
|         745|   -6.220395|   -8.552590|    0.824013|    0.011999|
|         746|   -6.222598|   -8.553774|    0.824013|    0.011999|
|         747|   -6.224097|   -8.554864|    0.824013|    0.011999|
|         748|   -6.225820|   -8.555854|    0.824013|    0.012000|
|         749|   -6.228447|   -8.556738|    0.824013|    0.012000|
|         750|   -6.232325|   -8.557513|    0.824013|    0.012000|
|         751|   -6.237477|   -8.558176|    0.824013|    0.012000|
|         752|   -6.243667|   -8.558726|    0.824013|    0.012000|
|         753|   -6.250502|   -8.559162|    0.824013|    0.012000|
|         754|   -6.257545|   -8.559501|    0.824013|    0.012000|
|         755|   -6.264410|   -8.559739|    0.824013|    0.012000|
|         756|   -6.270842|   -8.559887|    0.824013|    0.012000|
|         757|   -6.276750|   -8.559956|    0.824013|    0.012000|
|         758|   -6.282191|   -8.559962|    0.824012|    0.012000|
|         759|   -6.287329|   -8.559929|    0.824012|    0.012000|
|         760|   -6.292374|   -8.559888|    0.824012|    0.012000|
|         761|   -6.297531|   -8.559872|    0.824012|    0.012001|
|         762|   -6.302958|   -8.559921|    0.824012|    0.012001|
|         763|   -6.308755|   -8.560079|    0.824011|    0.012001|
|         764|   -6.314964|   -8.560393|    0.824011|    0.012001|
|         765|   -6.321580|   -8.560913|    0.824011|    0.012001|
|         766|   -6.328575|   -8.561686|    0.824011|    0.012001|
|         767|   -6.335907|   -8.562762|    0.824010|    0.012001|
|         768|   -6.343537|   -8.564185|    0.824010|    0.012001|
|         769|   -6.351432|   -8.565996|    0.824010|    0.012001|
|         770|   -6.359569|   -8.568228|    0.824010|    0.012001|
|         771|   -6.367925|   -8.570906|    0.824009|    0.012001|
|         772|   -6.376477|   -8.574043|    0.824009|    0.012001|
|         773|   -6.385196|   -8.577641|    0.824009|    0.012002|
|         774|   -6.394039|   -8.581688|    0.824008|    0.012002|
|         775|   -6.402954|   -8.586156|    0.824008|    0.012002|
|         776|   -6.411874|   -8.591002|    0.824008|    0.012002|
|         777|   -6.420722|   -8.596167|    0.824007|    0.012002|
|         778|   -6.429414|   -8.601573|    0.824007|    0.012002|
|         779|   -6.437862|   -8.607129|    0.824007|    0.012002|
|         780|   -6.445977|   -8.612731|    0.824007|    0.012002|
|         781|   -6.453672|   -8.618264|    0.824006|    0.012002|
|         782|   -6.460867|   -8.623608|    0.824006|    0.012002|
|         783|   -6.467491|   -8.628641|    0.824006|    0.012002|
|         784|   -6.473483|   -8.633247|    0.824006|    0.012002|
|         785|   -6.478797|   -8.637324|    0.824006|    0.012002|
|         786|   -6.483403|   -8.640789|    0.824006|    0.012002|
|         787|   -6.487288|   -8.643586|    0.824005|    0.012002|
|         788|   -6.490455|   -8.645687|    0.824005|    0.012002|
|         789|   -6.492923|   -8.647098|    0.824005|    0.012002|
|         790|   -6.494728|   -8.647855|    0.824005|    0.012002|
|         791|   -6.495916|   -8.648026|    0.824005|    0.012002|
|         792|   -6.496543|   -8.647699|    0.824005|    0.012003|
|         793|   -6.496669|   -8.646981|    0.824005|    0.012003|
|         794|   -6.496360|   -8.645993|    0.824005|    0.012003|
|         795|   -6.495681|   -8.644854|    0.824005|    0.012003|
|         796|   -6.494694|   -8.643684|    0.824005|    0.012003|
|         797|   -6.493459|   -8.642597|    0.824005|    0.012003|
|         798|   -6.492030|   -8.641690|    0.824005|    0.012003|
|         799|   -6.490457|   -8.641050|    0.824005|    0.012003|
|         800|   -6.488783|   -8.640746|    0.824005|    0.012003|
|         801|   -6.487048|   -8.640827|    0.824006|    0.012002|
+-----------------------------------------------------------------------+
|Fixed CL Mode                           |Value                         |
+-----------------------------------------------------------------------+
|Current CL                              |0.824006                      |
|Target CL                               |0.824                         |
|Previous AOA                            |2.77798                       |
|Changed AoA by                          |-2.71076e-05                  |
+-----------------------------------------------------------------------+
+----------------------------------------------------------------+
|  Inner_Iter|    rms[Rho]|     rms[nu]|          CL|          CD|
+----------------------------------------------------------------+
|         802|   -4.760271|   -8.573024|    0.824006|    0.012002|
|         803|   -5.144077|   -8.605729|    0.824006|    0.012002|
|         804|   -5.385317|   -8.617326|    0.824006|    0.012002|
|         805|   -5.461780|   -8.624793|    0.824006|    0.012002|
|         806|   -5.513975|   -8.630936|    0.824006|    0.012002|
|         807|   -5.582127|   -8.636400|    0.824006|    0.012002|
|         808|   -5.666406|   -8.641401|    0.824006|    0.012002|
|         809|   -5.754419|   -8.646067|    0.824006|    0.012002|
|         810|   -5.830639|   -8.650463|    0.824007|    0.012002|
|         811|   -5.887373|   -8.654577|    0.824007|    0.012002|
|         812|   -5.925971|   -8.658385|    0.824007|    0.012002|
|         813|   -5.949554|   -8.661914|    0.824007|    0.012002|
|         814|   -5.961250|   -8.665237|    0.824007|    0.012002|
|         815|   -5.966380|   -8.668388|    0.824007|    0.012002|
|         816|   -5.971364|   -8.671352|    0.824007|    0.012002|
|         817|   -5.980711|   -8.674089|    0.824008|    0.012001|
|         818|   -5.995656|   -8.676571|    0.824008|    0.012001|
|         819|   -6.014680|   -8.678808|    0.824008|    0.012001|
|         820|   -6.034997|   -8.680836|    0.824008|    0.012001|
|         821|   -6.054303|   -8.682698|    0.824008|    0.012001|
|         822|   -6.071918|   -8.684420|    0.824008|    0.012001|
|         823|   -6.088647|   -8.686008|    0.824008|    0.012001|
|         824|   -6.105690|   -8.687470|    0.824008|    0.012001|
|         825|   -6.123661|   -8.688812|    0.824008|    0.012001|
|         826|   -6.142266|   -8.690080|    0.824008|    0.012001|
|         827|   -6.160570|   -8.691306|    0.824008|    0.012001|
|         828|   -6.177447|   -8.692534|    0.824008|    0.012001|
|         829|   -6.191964|   -8.693818|    0.824008|    0.012001|
|         830|   -6.203597|   -8.695208|    0.824008|    0.012001|
|         831|   -6.212320|   -8.696752|    0.824008|    0.012001|
|         832|   -6.218616|   -8.698490|    0.824008|    0.012001|
|         833|   -6.223380|   -8.700450|    0.824009|    0.012001|
|         834|   -6.227712|   -8.702645|    0.824009|    0.012000|
|         835|   -6.232656|   -8.705076|    0.824009|    0.012000|
|         836|   -6.238991|   -8.707726|    0.824009|    0.012000|
|         837|   -6.247116|   -8.710572|    0.824008|    0.012000|
|         838|   -6.257018|   -8.713582|    0.824008|    0.012000|
|         839|   -6.268296|   -8.716717|    0.824008|    0.012000|
|         840|   -6.280226|   -8.719938|    0.824008|    0.012000|
|         841|   -6.291870|   -8.723206|    0.824008|    0.012000|
|         842|   -6.302260|   -8.726487|    0.824008|    0.012000|
|         843|   -6.310640|   -8.729747|    0.824008|    0.012000|
|         844|   -6.316674|   -8.732958|    0.824008|    0.012000|
|         845|   -6.320544|   -8.736096|    0.824008|    0.012000|
|         846|   -6.322855|   -8.739137|    0.824008|    0.012000|
|         847|   -6.324425|   -8.742061|    0.824008|    0.012000|
|         848|   -6.326035|   -8.744846|    0.824008|    0.012000|
|         849|   -6.328258|   -8.747470|    0.824008|    0.012000|
|         850|   -6.331381|   -8.749909|    0.824008|    0.012000|
|         851|   -6.335409|   -8.752135|    0.824008|    0.012000|
|         852|   -6.340126|   -8.754121|    0.824008|    0.012000|
|         853|   -6.345192|   -8.755839|    0.824008|    0.012000|
|         854|   -6.350235|   -8.757255|    0.824008|    0.012000|
|         855|   -6.354943|   -8.758356|    0.824008|    0.012000|
|         856|   -6.359123|   -8.759112|    0.824008|    0.012000|
|         857|   -6.362725|   -8.759499|    0.824007|    0.012000|
|         858|   -6.365821|   -8.759502|    0.824007|    0.012000|
|         859|   -6.368567|   -8.759118|    0.824007|    0.012000|
|         860|   -6.371151|   -8.758353|    0.824007|    0.012000|
|         861|   -6.373750|   -8.757228|    0.824007|    0.012000|
|         862|   -6.376502|   -8.755777|    0.824007|    0.012000|
|         863|   -6.379493|   -8.754042|    0.824007|    0.012000|
|         864|   -6.382768|   -8.752085|    0.824007|    0.012000|
|         865|   -6.386333|   -8.749971|    0.824007|    0.012000|
|         866|   -6.390179|   -8.747774|    0.824006|    0.012000|
|         867|   -6.394288|   -8.745578|    0.824006|    0.012000|
|         868|   -6.398648|   -8.743463|    0.824006|    0.012000|
|         869|   -6.403252|   -8.741513|    0.824006|    0.012000|
|         870|   -6.408099|   -8.739807|    0.824006|    0.012000|
|         871|   -6.413193|   -8.738417|    0.824006|    0.012000|
|         872|   -6.418536|   -8.737408|    0.824006|    0.012000|
|         873|   -6.424130|   -8.736833|    0.824005|    0.012000|
|         874|   -6.429969|   -8.736734|    0.824005|    0.012000|
|         875|   -6.436040|   -8.737137|    0.824005|    0.012001|
|         876|   -6.442327|   -8.738057|    0.824005|    0.012001|
|         877|   -6.448806|   -8.739491|    0.824005|    0.012001|
|         878|   -6.455450|   -8.741422|    0.824005|    0.012001|
|         879|   -6.462232|   -8.743817|    0.824005|    0.012001|
|         880|   -6.469120|   -8.746624|    0.824004|    0.012001|
|         881|   -6.476084|   -8.749782|    0.824004|    0.012001|
|         882|   -6.483092|   -8.753215|    0.824004|    0.012001|
|         883|   -6.490113|   -8.756834|    0.824004|    0.012001|
|         884|   -6.497116|   -8.760544|    0.824004|    0.012001|
|         885|   -6.504069|   -8.764245|    0.824004|    0.012001|
|         886|   -6.510942|   -8.767838|    0.824004|    0.012001|
|         887|   -6.517706|   -8.771228|    0.824004|    0.012001|
|         888|   -6.524331|   -8.774330|    0.824004|    0.012001|
|         889|   -6.530790|   -8.777074|    0.824004|    0.012001|
|         890|   -6.537056|   -8.779410|    0.824004|    0.012001|
|         891|   -6.543106|   -8.781309|    0.824004|    0.012001|
|         892|   -6.548913|   -8.782767|    0.824004|    0.012001|
|         893|   -6.554457|   -8.783805|    0.824004|    0.012001|
|         894|   -6.559714|   -8.784466|    0.824004|    0.012001|
|         895|   -6.564662|   -8.784811|    0.824004|    0.012002|
|         896|   -6.569282|   -8.784917|    0.824004|    0.012002|
|         897|   -6.573553|   -8.784869|    0.824004|    0.012002|
|         898|   -6.577456|   -8.784759|    0.824004|    0.012002|
|         899|   -6.580972|   -8.784675|    0.824004|    0.012002|
|         900|   -6.584087|   -8.784701|    0.824004|    0.012002|
|         901|   -6.586787|   -8.784912|    0.824004|    0.012001|
+-----------------------------------------------------------------------+
|Fixed CL Mode                           |Value                         |
+-----------------------------------------------------------------------+
|Current CL                              |0.824004                      |
|Target CL                               |0.824                         |
|Previous AOA                            |2.77795                       |
[...]
|        5298|   -6.042202|   -7.938968|    0.824238|    0.012005|
|        5299|   -6.048914|   -7.942613|    0.824238|    0.012005|
|        5300|   -6.055219|   -7.946278|    0.824238|    0.012005|
|        5301|   -6.061081|   -7.949980|    0.824238|    0.012005|
|        5302|   -6.066475|   -7.953727|    0.824238|    0.012005|
|        5303|   -6.071388|   -7.957531|    0.824238|    0.012005|
|        5304|   -6.075817|   -7.961397|    0.824238|    0.012005|
|        5305|   -6.079775|   -7.965331|    0.824238|    0.012005|
|        5306|   -6.083284|   -7.969335|    0.824238|    0.012005|
|        5307|   -6.086378|   -7.973412|    0.824239|    0.012005|
|        5308|   -6.089098|   -7.977565|    0.824239|    0.012005|
|        5309|   -6.091492|   -7.981796|    0.824239|    0.012005|
|        5310|   -6.093616|   -7.986105|    0.824239|    0.012005|
|        5311|   -6.095527|   -7.990492|    0.824239|    0.012005|
|        5312|   -6.097281|   -7.994959|    0.824239|    0.012005|
|        5313|   -6.098937|   -7.999507|    0.824239|    0.012005|
|        5314|   -6.100551|   -8.004140|    0.824239|    0.012005|
|        5315|   -6.102176|   -8.008862|    0.824239|    0.012005|
|        5316|   -6.103859|   -8.013676|    0.824239|    0.012005|
|        5317|   -6.105645|   -8.018590|    0.824240|    0.012005|
|        5318|   -6.107570|   -8.023607|    0.824240|    0.012005|
|        5319|   -6.109667|   -8.028734|    0.824240|    0.012005|
|        5320|   -6.111959|   -8.033976|    0.824240|    0.012005|
|        5321|   -6.114465|   -8.039339|    0.824240|    0.012005|
|        5322|   -6.117198|   -8.044828|    0.824240|    0.012005|
|        5323|   -6.120161|   -8.050445|    0.824240|    0.012005|
|        5324|   -6.123353|   -8.056192|    0.824241|    0.012005|
|        5325|   -6.126765|   -8.062070|    0.824241|    0.012005|
|        5326|   -6.130384|   -8.068076|    0.824241|    0.012006|
|        5327|   -6.134187|   -8.074207|    0.824241|    0.012006|
|        5328|   -6.138150|   -8.080458|    0.824241|    0.012006|
|        5329|   -6.142240|   -8.086822|    0.824241|    0.012006|
|        5330|   -6.146423|   -8.093291|    0.824242|    0.012006|
|        5331|   -6.150659|   -8.099856|    0.824242|    0.012006|
|        5332|   -6.154907|   -8.106504|    0.824242|    0.012006|
|        5333|   -6.159125|   -8.113225|    0.824242|    0.012006|
|        5334|   -6.163268|   -8.120006|    0.824242|    0.012006|
|        5335|   -6.167296|   -8.126835|    0.824242|    0.012006|
|        5336|   -6.171169|   -8.133701|    0.824242|    0.012006|
|        5337|   -6.174851|   -8.140590|    0.824242|    0.012007|
|        5338|   -6.178312|   -8.147488|    0.824243|    0.012007|
|        5339|   -6.181531|   -8.154381|    0.824243|    0.012007|
|        5340|   -6.184491|   -8.161260|    0.824243|    0.012007|
|        5341|   -6.187185|   -8.168116|    0.824243|    0.012007|
|        5342|   -6.189613|   -8.174942|    0.824243|    0.012007|
|        5343|   -6.191786|   -8.181733|    0.824243|    0.012007|
|        5344|   -6.193721|   -8.188485|    0.824243|    0.012007|
|        5345|   -6.195441|   -8.195199|    0.824243|    0.012007|
|        5346|   -6.196978|   -8.201875|    0.824244|    0.012007|
|        5347|   -6.198367|   -8.208513|    0.824244|    0.012007|
|        5348|   -6.199650|   -8.215117|    0.824244|    0.012007|
|        5349|   -6.200868|   -8.221688|    0.824244|    0.012007|
|        5350|   -6.202066|   -8.228230|    0.824244|    0.012007|
|        5351|   -6.203287|   -8.234745|    0.824244|    0.012007|
|        5352|   -6.204576|   -8.241235|    0.824244|    0.012007|
|        5353|   -6.205973|   -8.247701|    0.824244|    0.012008|
|        5354|   -6.207517|   -8.254146|    0.824244|    0.012008|
|        5355|   -6.209244|   -8.260571|    0.824244|    0.012008|
|        5356|   -6.211185|   -8.266975|    0.824244|    0.012008|
|        5357|   -6.213368|   -8.273359|    0.824244|    0.012008|
|        5358|   -6.215816|   -8.279722|    0.824244|    0.012008|
|        5359|   -6.218549|   -8.286065|    0.824244|    0.012008|
|        5360|   -6.221578|   -8.292386|    0.824244|    0.012008|
|        5361|   -6.224913|   -8.298684|    0.824244|    0.012008|
|        5362|   -6.228558|   -8.304957|    0.824244|    0.012008|
|        5363|   -6.232512|   -8.311206|    0.824244|    0.012008|
|        5364|   -6.236768|   -8.317427|    0.824244|    0.012008|
|        5365|   -6.241316|   -8.323625|    0.824244|    0.012008|
|        5366|   -6.246138|   -8.329797|    0.824244|    0.012008|
|        5367|   -6.251216|   -8.335940|    0.824244|    0.012008|
|        5368|   -6.256522|   -8.342044|    0.824244|    0.012008|
|        5369|   -6.262027|   -8.348110|    0.824244|    0.012008|
|        5370|   -6.267696|   -8.354137|    0.824244|    0.012007|
|        5371|   -6.273490|   -8.360125|    0.824244|    0.012007|
|        5372|   -6.279368|   -8.366076|    0.824244|    0.012007|
|        5373|   -6.285285|   -8.371991|    0.824244|    0.012007|
|        5374|   -6.291194|   -8.377874|    0.824244|    0.012007|
|        5375|   -6.297046|   -8.383726|    0.824244|    0.012007|
|        5376|   -6.302793|   -8.389552|    0.824244|    0.012007|
|        5377|   -6.308386|   -8.395357|    0.824244|    0.012007|
|        5378|   -6.313780|   -8.401146|    0.824244|    0.012007|
|        5379|   -6.318932|   -8.406923|    0.824244|    0.012007|
|        5380|   -6.323802|   -8.412695|    0.824244|    0.012007|
|        5381|   -6.328358|   -8.418468|    0.824244|    0.012007|
|        5382|   -6.332571|   -8.424248|    0.824244|    0.012007|
|        5383|   -6.336420|   -8.430041|    0.824244|    0.012007|
|        5384|   -6.339893|   -8.435854|    0.824244|    0.012007|
|        5385|   -6.342983|   -8.441690|    0.824244|    0.012006|
|        5386|   -6.345691|   -8.447553|    0.824244|    0.012006|
|        5387|   -6.348025|   -8.453445|    0.824244|    0.012006|
|        5388|   -6.349998|   -8.459366|    0.824244|    0.012006|
|        5389|   -6.351629|   -8.465317|    0.824244|    0.012006|
|        5390|   -6.352939|   -8.471292|    0.824244|    0.012006|
|        5391|   -6.353956|   -8.477288|    0.824244|    0.012006|
|        5392|   -6.354704|   -8.483295|    0.824244|    0.012006|
|        5393|   -6.355217|   -8.489304|    0.824244|    0.012006|
|        5394|   -6.355518|   -8.495311|    0.824244|    0.012006|
|        5395|   -6.355634|   -8.501306|    0.824244|    0.012005|
|        5396|   -6.355588|   -8.507267|    0.824244|    0.012005|
|        5397|   -6.355403|   -8.513168|    0.824245|    0.012005|
|        5398|   -6.355099|   -8.518989|    0.824245|    0.012005|
|        5399|   -6.354694|   -8.524704|    0.824245|    0.012005|
|        5400|   -6.354203|   -8.530290|    0.824245|    0.012005|
|        5401|   -6.353637|   -8.535725|    0.824245|    0.012005|
|        5402|   -6.353009|   -8.540985|    0.824245|    0.012005|
|        5403|   -6.352326|   -8.546049|    0.824245|    0.012005|
|        5404|   -6.351596|   -8.550899|    0.824246|    0.012005|
|        5405|   -6.350822|   -8.555517|    0.824246|    0.012004|
|        5406|   -6.350010|   -8.559891|    0.824246|    0.012004|
|        5407|   -6.349162|   -8.564012|    0.824246|    0.012004|
|        5408|   -6.348281|   -8.567874|    0.824246|    0.012004|
|        5409|   -6.347369|   -8.571478|    0.824246|    0.012004|
|        5410|   -6.346428|   -8.574825|    0.824246|    0.012004|
|        5411|   -6.345461|   -8.577920|    0.824247|    0.012004|
|        5412|   -6.344469|   -8.580773|    0.824247|    0.012004|
|        5413|   -6.343456|   -8.583399|    0.824247|    0.012004|
|        5414|   -6.342426|   -8.585816|    0.824247|    0.012004|
|        5415|   -6.341381|   -8.588040|    0.824247|    0.012004|
|        5416|   -6.340328|   -8.590084|    0.824247|    0.012004|
|        5417|   -6.339270|   -8.591968|    0.824247|    0.012004|
|        5418|   -6.338215|   -8.593714|    0.824248|    0.012003|
|        5419|   -6.337168|   -8.595342|    0.824248|    0.012003|
|        5420|   -6.336138|   -8.596869|    0.824248|    0.012003|
|        5421|   -6.335133|   -8.598312|    0.824248|    0.012003|
|        5422|   -6.334161|   -8.599684|    0.824248|    0.012003|
|        5423|   -6.333233|   -8.600998|    0.824248|    0.012003|
|        5424|   -6.332358|   -8.602262|    0.824248|    0.012003|
|        5425|   -6.331548|   -8.603486|    0.824248|    0.012003|
|        5426|   -6.330816|   -8.604674|    0.824248|    0.012003|
|        5427|   -6.330173|   -8.605833|    0.824249|    0.012003|
|        5428|   -6.329634|   -8.606967|    0.824249|    0.012003|
|        5429|   -6.329211|   -8.608080|    0.824249|    0.012003|
|        5430|   -6.328919|   -8.609176|    0.824249|    0.012003|
|        5431|   -6.328772|   -8.610259|    0.824249|    0.012003|
|        5432|   -6.328786|   -8.611333|    0.824249|    0.012003|
|        5433|   -6.328974|   -8.612403|    0.824249|    0.012003|
|        5434|   -6.329352|   -8.613475|    0.824249|    0.012003|
|        5435|   -6.329934|   -8.614555|    0.824249|    0.012003|
|        5436|   -6.330732|   -8.615652|    0.824249|    0.012003|
|        5437|   -6.331760|   -8.616774|    0.824249|    0.012003|
|        5438|   -6.333029|   -8.617931|    0.824249|    0.012003|
|        5439|   -6.334550|   -8.619131|    0.824249|    0.012003|
|        5440|   -6.336332|   -8.620385|    0.824249|    0.012003|
|        5441|   -6.338381|   -8.621721|    0.824249|    0.012003|
|        5442|   -6.340703|   -8.623147|    0.824249|    0.012004|
|        5443|   -6.343301|   -8.624670|    0.824249|    0.012004|
|        5444|   -6.346176|   -8.626294|    0.824249|    0.012004|
|        5445|   -6.349325|   -8.628029|    0.824249|    0.012004|
|        5446|   -6.352744|   -8.629880|    0.824249|    0.012004|
|        5447|   -6.356424|   -8.631852|    0.824249|    0.012004|
|        5448|   -6.360354|   -8.633951|    0.824249|    0.012004|
|        5449|   -6.364521|   -8.636180|    0.824249|    0.012004|
|        5450|   -6.368905|   -8.638541|    0.824249|    0.012004|
|        5451|   -6.373484|   -8.641035|    0.824249|    0.012004|
|        5452|   -6.378235|   -8.643662|    0.824249|    0.012004|
|        5453|   -6.383127|   -8.646421|    0.824249|    0.012004|
|        5454|   -6.388128|   -8.649307|    0.824249|    0.012004|
|        5455|   -6.393202|   -8.652317|    0.824249|    0.012004|
|        5456|   -6.398311|   -8.655445|    0.824249|    0.012004|
|        5457|   -6.403412|   -8.658684|    0.824249|    0.012005|
|        5458|   -6.408463|   -8.662028|    0.824249|    0.012005|
|        5459|   -6.413418|   -8.665477|    0.824249|    0.012005|
|        5460|   -6.418231|   -8.669024|    0.824248|    0.012005|
|        5461|   -6.422857|   -8.672660|    0.824248|    0.012005|
|        5462|   -6.427252|   -8.676374|    0.824248|    0.012005|
|        5463|   -6.431373|   -8.680156|    0.824248|    0.012005|
|        5464|   -6.435183|   -8.683993|    0.824248|    0.012005|
|        5465|   -6.438647|   -8.687874|    0.824248|    0.012005|
|        5466|   -6.441737|   -8.691787|    0.824248|    0.012005|
|        5467|   -6.444430|   -8.695721|    0.824248|    0.012005|
|        5468|   -6.446711|   -8.699665|    0.824247|    0.012005|
|        5469|   -6.448573|   -8.703607|    0.824247|    0.012005|
|        5470|   -6.450014|   -8.707537|    0.824247|    0.012006|
|        5471|   -6.451043|   -8.711444|    0.824247|    0.012006|
|        5472|   -6.451674|   -8.715318|    0.824247|    0.012006|
|        5473|   -6.451927|   -8.719148|    0.824247|    0.012006|
|        5474|   -6.451829|   -8.722925|    0.824247|    0.012006|
|        5475|   -6.451411|   -8.726637|    0.824246|    0.012006|
|        5476|   -6.450709|   -8.730274|    0.824246|    0.012006|
|        5477|   -6.449760|   -8.733827|    0.824246|    0.012006|
|        5478|   -6.448605|   -8.737286|    0.824246|    0.012006|
|        5479|   -6.447283|   -8.740641|    0.824246|    0.012006|
|        5480|   -6.445835|   -8.743884|    0.824246|    0.012006|
|        5481|   -6.444302|   -8.747005|    0.824245|    0.012006|
|        5482|   -6.442721|   -8.749997|    0.824245|    0.012006|
|        5483|   -6.441130|   -8.752852|    0.824245|    0.012006|
|        5484|   -6.439561|   -8.755564|    0.824245|    0.012006|
|        5485|   -6.438047|   -8.758128|    0.824245|    0.012006|
|        5486|   -6.436618|   -8.760540|    0.824245|    0.012006|
|        5487|   -6.435298|   -8.762797|    0.824244|    0.012006|
|        5488|   -6.434111|   -8.764900|    0.824244|    0.012006|
|        5489|   -6.433079|   -8.766848|    0.824244|    0.012006|
|        5490|   -6.432218|   -8.768644|    0.824244|    0.012006|
|        5491|   -6.431543|   -8.770293|    0.824244|    0.012006|
|        5492|   -6.431069|   -8.771801|    0.824244|    0.012006|
|        5493|   -6.430804|   -8.773174|    0.824243|    0.012006|
|        5494|   -6.430757|   -8.774424|    0.824243|    0.012006|
|        5495|   -6.430935|   -8.775559|    0.824243|    0.012006|
|        5496|   -6.431341|   -8.776591|    0.824243|    0.012006|
|        5497|   -6.431978|   -8.777534|    0.824243|    0.012006|
|        5498|   -6.432848|   -8.778400|    0.824243|    0.012006|
|        5499|   -6.433949|   -8.779202|    0.824243|    0.011991|
+-----------------------------------------------------------------------+
|Fixed CL Mode (Finite Difference)       |Value                         |
+-----------------------------------------------------------------------+
|Delta CL / Delta AoA                    |0.242585                      |
|Delta CD / Delta CL                     |0.0183653                     |
|Delta CMz / Delta CL                    |0.00375159                    |
+-----------------------------------------------------------------------+
Writing Flow Meta-Data file: flow.meta

----------------------------- Solver Exit -------------------------------

Maximum number of iterations reached (ITER = 5500) before convergence.
+-----------------------------------------------------------------------+
|      Convergence Field     |     Value    |   Criterion  |  Converged |
+-----------------------------------------------------------------------+
|                    rms[Rho]|      -6.43395|         < -12|          No|
+-----------------------------------------------------------------------+
-------------------------------------------------------------------------

--------------------------- Finalizing Solver ---------------------------
Deleted CNumerics container.
Deleted CIntegration container.
Deleted CSolver container.
Deleted CIteration container.
Deleted CInterface container.
Deleted CGeometry container.
Deleted CFreeFormDefBox class.
Deleted CSurfaceMovement class.
Deleted CVolumetricMovement class.
Deleted CConfig container.
Deleted nInst container.
Deleted COutput class.
-------------------------------------------------------------------------

------------------------- Exit Success (SU2_CFD) ------------------------


-------------------------------------------------------------------------
|    ___ _   _ ___                                                      |
|   / __| | | |_  )   Release 8.0.0 "Harrier"                           |
|   \__ \ |_| |/ /                                                      |
|   |___/\___//___|   Suite (Solution Exporting Code)                   |
|                                                                       |
-------------------------------------------------------------------------
| SU2 Project Website: https://su2code.github.io                        |
|                                                                       |
| The SU2 Project is maintained by the SU2 Foundation                   |
| (http://su2foundation.org)                                            |
-------------------------------------------------------------------------
| Copyright 2012-2023, SU2 Contributors                                 |
|                                                                       |
| SU2 is free software; you can redistribute it and/or                  |
| modify it under the terms of the GNU Lesser General Public            |
| License as published by the Free Software Foundation; either          |
| version 2.1 of the License, or (at your option) any later version.    |
|                                                                       |
| SU2 is distributed in the hope that it will be useful,                |
| but WITHOUT ANY WARRANTY; without even the implied warranty of        |
| MERCHANTABILITY or FITNESS FOR A PARTICULAR PURPOSE. See the GNU      |
| Lesser General Public License for more details.                       |
|                                                                       |
| You should have received a copy of the GNU Lesser General Public      |
| License along with SU2. If not, see <http://www.gnu.org/licenses/>.   |
-------------------------------------------------------------------------

----------------- Physical Case Definition ( Zone 0 ) -------------------
Input mesh file name: mesh_RAE2822_turb_deform.su2

-------------------- Output Information ( Zone 0 ) ----------------------
The tabular file format is CSV (.csv).
Flow variables file name: flow.

------------- Config File Boundary Information ( Zone 0 ) ---------------
+-----------------------------------------------------------------------+
|                        Marker Type|                        Marker Name|
+-----------------------------------------------------------------------+
|                          Far-field|                           FARFIELD|
+-----------------------------------------------------------------------+
|                     Heat flux wall|                            AIRFOIL|
+-----------------------------------------------------------------------+
Two dimensional problem.
13937 grid points before partitioning.
22842 volume elements before partitioning.
2 surface markers.
192 boundary elements in index 0 (Marker = AIRFOIL).
40 boundary elements in index 1 (Marker = FARFIELD).
Executing the partitioning functions.
Building the graph adjacency structure.
Calling ParMETIS... graph partitioning complete (831 edge cuts).
Distributing ParMETIS coloring.
Rebalancing vertices.
Rebalancing volume element connectivity.
Rebalancing markers and surface elements.
14875 vertices including ghost points. 
23674 interior elements including halo cells. 
18780 triangles.
4894 quadrilaterals.
Establishing MPI communication patterns.
Identify vertices.
Storing a mapping from global to local point index.

------------------------- Solution Postprocessing -----------------------
Reading and storing the solution from restart_flow.
Volume output fields: COORDINATES, SOLUTION
  Info: Ignoring the following screen output fields:
  RMS_DENSITY, RMS_NU_TILDE, LIFT, DRAG
Screen output fields: INNER_ITER
  Info: Ignoring the following history output groups:
  RMS_RES, AERO_COEFF
History output group(s): ITER
Warning: No (valid) fields chosen for convergence monitoring. Convergence monitoring inactive.
Warning: No (valid) fields chosen for time convergence monitoring. Time convergence monitoring inactive.
|Paraview                           |flow.vtu                           |
|Paraview surface                   |surface_flow.vtu                   |
|CSV file                           |surface_flow.csv                   |

------------------------- Finalize Solver -------------------------
Deleted CGeometry container.
Deleted CSolver class.
Deleted CConfig container.
Deleted COutput class.

Completed in 0.017679 seconds on 6 cores.

------------------------- Exit Success (SU2_SOL) ------------------------

