
-------------------------------------------------------------------------
|    ___ _   _ ___                                                      |
|   / __| | | |_  )   Release 8.0.0 "Harrier"                           |
|   \__ \ |_| |/ /                                                      |
|   |___/\___//___|   Suite (Computational Fluid Dynamics Code)         |
|                                                                       |
-------------------------------------------------------------------------
| SU2 Project Website: https://su2code.github.io                        |
|                                                                       |
| The SU2 Project is maintained by the SU2 Foundation                   |
| (http://su2foundation.org)                                            |
-------------------------------------------------------------------------
| Copyright 2012-2023, SU2 Contributors                                 |
|                                                                       |
| SU2 is free software; you can redistribute it and/or                  |
| modify it under the terms of the GNU Lesser General Public            |
| License as published by the Free Software Foundation; either          |
| version 2.1 of the License, or (at your option) any later version.    |
|                                                                       |
| SU2 is distributed in the hope that it will be useful,                |
| but WITHOUT ANY WARRANTY; without even the implied warranty of        |
| MERCHANTABILITY or FITNESS FOR A PARTICULAR PURPOSE. See the GNU      |
| Lesser General Public License for more details.                       |
|                                                                       |
| You should have received a copy of the GNU Lesser General Public      |
| License along with SU2. If not, see <http://www.gnu.org/licenses/>.   |
-------------------------------------------------------------------------

Parsing config file for zone 0

----------------- Physical Case Definition ( Zone 0 ) -------------------
Compressible RANS equations.
Turbulence model: Spalart-Allmaras-noft2
Hybrid RANS/LES: No Hybrid RANS/LES
Mach number: 0.734.
Angle of attack (AoA): 2.31 deg, and angle of sideslip (AoS): 0 deg.
Reynolds number: 6.5e+06. Reference length 1.
Fixed CL mode, target value: 0.824.
Reading and writing binary SU2 native restart files.
Read flow solution from: solution_flow.dat.
Dimensional simulation.
The reference area is 1 m^2.
The semi-span will be computed using the max y(3D) value.
The reference length is 1 m.
Reference origin for moment evaluation is (0.25, 0, 0).
Surface(s) where the force coefficients are evaluated: AIRFOIL.

Surface(s) plotted in the output file: AIRFOIL.
Surface(s) affected by the design variables: AIRFOIL.
Input mesh file name: mesh_RAE2822_turb_deform.su2

--------------- Space Numerical Integration ( Zone 0 ) ------------------
Jameson-Schmidt-Turkel scheme (2nd order in space) for the flow inviscid terms.
JST viscous coefficients (2nd & 4th): 0.5, 0.02.
The method includes a grid stretching correction (p = 0.3).
Scalar upwind solver for the turbulence model.
First order integration in space.
Average of gradients with correction (viscous flow terms).
Average of gradients with correction (viscous turbulence terms).
Gradient for viscous and source terms: inverse-distance weighted Least-Squares.

--------------- Time Numerical Integration  ( Zone 0 ) ------------------
Local time stepping (steady state simulation).
Euler implicit method for the flow equations.
FGMRES is used for solving the linear system.
Using a ILU(0) preconditioning.
Convergence criteria of the linear solver: 1e-06.
Max number of linear iterations: 10.
No CFL adaptation.
Courant-Friedrichs-Lewy number:       10
Euler implicit time integration for the turbulence model.

------------------ Convergence Criteria  ( Zone 0 ) ---------------------
Maximum number of solver subiterations: 5500.
Begin convergence monitoring at iteration 10.
Residual minimum value: 1e-12.
Cauchy series min. value: 1e-06.
Number of Cauchy elements: 100.
Begin windowed time average at iteration 0.

-------------------- Output Information ( Zone 0 ) ----------------------
File writing frequency: 
+------------------------------------+
|                     File| Frequency|
+------------------------------------+
|                  RESTART|     10000|
|                 PARAVIEW|     10000|
|         SURFACE_PARAVIEW|     10000|
|              SURFACE_CSV|     10000|
+------------------------------------+
Writing the convergence history file every 1 inner iterations.
Writing the screen convergence history every 1 inner iterations.
The tabular file format is CSV (.csv).
Convergence history file name: history_direct.
Forces breakdown file name: forces_breakdown.dat.
Surface file name: surface_flow.
Volume file name: flow.
Restart file name: restart_flow.dat.

------------- Config File Boundary Information ( Zone 0 ) ---------------
+-----------------------------------------------------------------------+
|                        Marker Type|                        Marker Name|
+-----------------------------------------------------------------------+
|                          Far-field|                           FARFIELD|
+-----------------------------------------------------------------------+
|                     Heat flux wall|                            AIRFOIL|
+-----------------------------------------------------------------------+

-------------------- Output Preprocessing ( Zone 0 ) --------------------

WARNING: SURFACE_PRESSURE_DROP can only be computed for at least 2 surfaces (outlet, inlet, ...)

Screen output fields: INNER_ITER, RMS_DENSITY, RMS_NU_TILDE, LIFT, DRAG
History output group(s): ITER, RMS_RES, AERO_COEFF
Convergence field(s): RMS_DENSITY
Warning: No (valid) fields chosen for time convergence monitoring. Time convergence monitoring inactive.
Volume output fields: COORDINATES, SOLUTION, PRIMITIVE

------------------- Geometry Preprocessing ( Zone 0 ) -------------------
Two dimensional problem.
13937 grid points before partitioning.
22842 volume elements before partitioning.
2 surface markers.
192 boundary elements in index 0 (Marker = AIRFOIL).
40 boundary elements in index 1 (Marker = FARFIELD).
Executing the partitioning functions.
Building the graph adjacency structure.
Calling ParMETIS... graph partitioning complete (831 edge cuts).
Distributing ParMETIS coloring.
Rebalancing vertices.
Rebalancing volume element connectivity.
Rebalancing markers and surface elements.
14875 vertices including ghost points. 
23674 interior elements including halo cells. 
18780 triangles.
4894 quadrilaterals.
Establishing MPI communication patterns.
Setting point connectivity.
Renumbering points (Reverse Cuthill McKee Ordering).
Recomputing point connectivity.
Setting element connectivity.
Checking the numerical grid orientation.
All volume elements are correctly orientend.
All surface elements are correctly orientend.
Identifying edges and vertices.
Setting the control volume structure.
Area of the computational grid: 32209.9.
Searching for the closest normal neighbors to the surfaces.
Storing a mapping from global to local point index.
Compute the surface curvature.
Max K: 172.738. Mean K: 7.80004. Standard deviation K: 23.7675.
Checking for periodicity.
Computing mesh quality statistics for the dual control volumes.
+--------------------------------------------------------------+
|           Mesh Quality Metric|        Minimum|        Maximum|
+--------------------------------------------------------------+
|    Orthogonality Angle (deg.)|        75.1492|        89.9991|
|     CV Face Area Aspect Ratio|        1.00363|        3358.55|
|           CV Sub-Volume Ratio|        1.00044|        1215.22|
+--------------------------------------------------------------+
Finding max control volume width.
Communicating number of neighbors.
Wetted area = 2.02193 m.
Area projection in the x-plane = 0.124862 m, y-plane = 0.995873 m.
Max. coordinate in the x-direction = 1 m, y-direction = 0.0620989 m.
Min. coordinate in the x-direction = 0 m, y-direction = -0.0599435 m.
Computing wall distances.

-------------------- Solver Preprocessing ( Zone 0 ) --------------------
WARNING: AoA in the solution file (2.78945 deg.) +
         AoA offset in mesh file (0 deg.) = 2.78945 deg.
WARNING: SU2 will use the dCD/dCL provided in the direct solution file: 0.0176926.
WARNING: SU2 will use the dCMz/dCL provided in the direct solution file: -0.00194752.
Viscous flow: Computing pressure using the ideal gas law
based on the free-stream temperature and a density computed
from the Reynolds number.
Force coefficients computed using free-stream values.

-- Models:
+------------------------------------------------------------------------------+
|          Viscosity Model|        Conductivity Model|              Fluid Model|
+------------------------------------------------------------------------------+
|               SUTHERLAND|          CONSTANT_PRANDTL|             STANDARD_AIR|
+------------------------------------------------------------------------------+
-- Fluid properties:
+------------------------------------------------------------------------------+
|                  Name|    Dim. value|    Ref. value|      Unit|Non-dim. value|
+------------------------------------------------------------------------------+
|        Ref. Viscosity|     1.716e-05|             1|   N.s/m^2|     1.716e-05|
|      Sutherland Temp.|        273.15|             1|         K|        273.15|
|     Sutherland Const.|         110.4|             1|         K|         110.4|
+------------------------------------------------------------------------------+
|        Prandtl (Lam.)|             -|             -|         -|          0.71|
|       Prandtl (Turb.)|             -|             -|         -|           0.9|
+------------------------------------------------------------------------------+
|          Gas Constant|       287.058|             1|  N.m/kg.K|       287.058|
|      Spec. Heat Ratio|             -|             -|         -|           1.4|
+------------------------------------------------------------------------------+
-- Initial and free-stream conditions:
+------------------------------------------------------------------------------+
|                  Name|    Dim. value|    Ref. value|      Unit|Non-dim. value|
+------------------------------------------------------------------------------+
|       Static Pressure|         38515|             1|        Pa|         38515|
|               Density|      0.465631|             1|    kg/m^3|      0.465631|
|           Temperature|        288.15|             1|         K|        288.15|
|          Total Energy|        237984|             1|   m^2/s^2|        237984|
|            Velocity-X|       249.482|             1|       m/s|       249.482|
|            Velocity-Y|       12.1557|             1|       m/s|       12.1557|
|    Velocity Magnitude|       249.778|             1|       m/s|       249.778|
+------------------------------------------------------------------------------+
|             Viscosity|    1.7893e-05|             1|   N.s/m^2|    1.7893e-05|
|          Conductivity|             -|             1|   W/m^2.K|             -|
|     Turb. Kin. Energy|       233.959|             1|   m^2/s^2|       233.959|
|     Spec. Dissipation|        608834|             1|       1/s|        608834|
+------------------------------------------------------------------------------+
|           Mach Number|             -|             -|         -|         0.734|
|       Reynolds Number|             -|             -|         -|       6.5e+06|
+------------------------------------------------------------------------------+
Initialize Jacobian structure (Navier-Stokes). MG level: 0.
Initialize Jacobian structure (SA model).

------------------- Numerics Preprocessing ( Zone 0 ) -------------------

----------------- Integration Preprocessing ( Zone 0 ) ------------------

------------------- Iteration Preprocessing ( Zone 0 ) ------------------
Euler/Navier-Stokes/RANS fluid iteration.

------------------------------ Begin Solver -----------------------------

Simulation Run using the Single-zone Driver
WARNING: SU2 was not compiled for an AVX-capable architecture. Performance could be better,
         see https://su2code.github.io/docs_v7/Build-SU2-Linux-MacOS/#compiler-optimizations
+----------------------------------------------------------------+
|  Inner_Iter|    rms[Rho]|     rms[nu]|          CL|          CD|
+----------------------------------------------------------------+
|           0|   -3.966595|   -5.208528|    0.824356|    0.011275|
|           1|   -4.025872|   -5.315027|    0.824459|    0.011208|
|           2|   -4.091479|   -5.433535|    0.824398|    0.011191|
|           3|   -4.146830|   -5.556824|    0.824255|    0.011198|
|           4|   -4.189826|   -5.676423|    0.824100|    0.011208|
|           5|   -4.218985|   -5.780506|    0.823975|    0.011211|
|           6|   -4.234200|   -5.850255|    0.823898|    0.011206|
|           7|   -4.238783|   -5.873164|    0.823872|    0.011198|
|           8|   -4.237043|   -5.860848|    0.823889|    0.011194|
|           9|   -4.231521|   -5.836683|    0.823942|    0.011197|
|          10|   -4.222967|   -5.817238|    0.824021|    0.011210|
|          11|   -4.211752|   -5.808704|    0.824118|    0.011234|
|          12|   -4.198758|   -5.811884|    0.824224|    0.011269|
|          13|   -4.185310|   -5.824210|    0.824331|    0.011313|
|          14|   -4.172740|   -5.840123|    0.824428|    0.011365|
|          15|   -4.162082|   -5.851048|    0.824508|    0.011421|
|          16|   -4.153948|   -5.847783|    0.824565|    0.011480|
|          17|   -4.148492|   -5.826934|    0.824593|    0.011538|
|          18|   -4.145410|   -5.793965|    0.824591|    0.011594|
|          19|   -4.144022|   -5.758452|    0.824561|    0.011647|
|          20|   -4.143459|   -5.728347|    0.824505|    0.011694|
|          21|   -4.142934|   -5.708089|    0.824429|    0.011736|
|          22|   -4.141983|   -5.699398|    0.824339|    0.011772|
|          23|   -4.140552|   -5.702307|    0.824241|    0.011803|
|          24|   -4.138907|   -5.715700|    0.824141|    0.011828|
|          25|   -4.137426|   -5.737552|    0.824045|    0.011849|
|          26|   -4.136401|   -5.764843|    0.823957|    0.011866|
|          27|   -4.135931|   -5.793596|    0.823879|    0.011881|
|          28|   -4.135926|   -5.819351|    0.823813|    0.011893|
|          29|   -4.136177|   -5.838410|    0.823759|    0.011905|
|          30|   -4.136447|   -5.849149|    0.823715|    0.011915|
|          31|   -4.136543|   -5.852631|    0.823680|    0.011925|
|          32|   -4.136353|   -5.851963|    0.823652|    0.011934|
|          33|   -4.135841|   -5.850363|    0.823627|    0.011944|
|          34|   -4.135019|   -5.850106|    0.823602|    0.011953|
|          35|   -4.133927|   -5.852385|    0.823576|    0.011963|
|          36|   -4.132608|   -5.857579|    0.823546|    0.011973|
|          37|   -4.131103|   -5.865269|    0.823509|    0.011983|
|          38|   -4.129448|   -5.874637|    0.823465|    0.011993|
|          39|   -4.127681|   -5.884649|    0.823412|    0.012003|
|          40|   -4.125845|   -5.894193|    0.823351|    0.012013|
|          41|   -4.123984|   -5.902333|    0.823280|    0.012022|
|          42|   -4.122140|   -5.908403|    0.823201|    0.012031|
|          43|   -4.120350|   -5.912150|    0.823114|    0.012040|
|          44|   -4.118636|   -5.913789|    0.823020|    0.012048|
|          45|   -4.117004|   -5.913813|    0.822921|    0.012055|
|          46|   -4.115439|   -5.912714|    0.822817|    0.012062|
|          47|   -4.113908|   -5.910987|    0.822710|    0.012067|
|          48|   -4.112363|   -5.909100|    0.822601|    0.012070|
|          49|   -4.110753|   -5.907393|    0.822493|    0.012073|
|          50|   -4.109029|   -5.906085|    0.822386|    0.012074|
|          51|   -4.107155|   -5.905297|    0.822282|    0.012073|
|          52|   -4.105116|   -5.905093|    0.822181|    0.012071|
|          53|   -4.102924|   -5.905478|    0.822084|    0.012067|
|          54|   -4.100613|   -5.906466|    0.821993|    0.012062|
|          55|   -4.098240|   -5.908038|    0.821907|    0.012055|
|          56|   -4.095877|   -5.910174|    0.821827|    0.012046|
|          57|   -4.093597|   -5.912874|    0.821753|    0.012036|
|          58|   -4.091469|   -5.916088|    0.821685|    0.012025|
|          59|   -4.089543|   -5.919774|    0.821622|    0.012013|
|          60|   -4.087854|   -5.923876|    0.821564|    0.011999|
|          61|   -4.086414|   -5.928330|    0.821511|    0.011985|
|          62|   -4.085218|   -5.933053|    0.821463|    0.011969|
|          63|   -4.084245|   -5.937968|    0.821419|    0.011953|
|          64|   -4.083468|   -5.943011|    0.821379|    0.011936|
|          65|   -4.082859|   -5.948122|    0.821342|    0.011918|
|          66|   -4.082398|   -5.953251|    0.821308|    0.011900|
|          67|   -4.082072|   -5.958382|    0.821278|    0.011882|
|          68|   -4.081878|   -5.963515|    0.821251|    0.011864|
|          69|   -4.081822|   -5.968645|    0.821226|    0.011846|
|          70|   -4.081914|   -5.973763|    0.821205|    0.011827|
|          71|   -4.082167|   -5.978859|    0.821186|    0.011809|
|          72|   -4.082586|   -5.983918|    0.821169|    0.011791|
|          73|   -4.083177|   -5.988924|    0.821155|    0.011774|
|          74|   -4.083936|   -5.993872|    0.821142|    0.011757|
|          75|   -4.084857|   -5.998773|    0.821132|    0.011740|
|          76|   -4.085930|   -6.003637|    0.821124|    0.011724|
|          77|   -4.087147|   -6.008482|    0.821116|    0.011709|
|          78|   -4.088504|   -6.013333|    0.821110|    0.011694|
|          79|   -4.090002|   -6.018234|    0.821105|    0.011679|
|          80|   -4.091648|   -6.023219|    0.821100|    0.011665|
|          81|   -4.093453|   -6.028318|    0.821095|    0.011652|
|          82|   -4.095430|   -6.033558|    0.821090|    0.011639|
|          83|   -4.097587|   -6.038940|    0.821085|    0.011626|
|          84|   -4.099928|   -6.044461|    0.821080|    0.011613|
|          85|   -4.102446|   -6.050106|    0.821074|    0.011601|
|          86|   -4.105121|   -6.055848|    0.821067|    0.011589|
|          87|   -4.107920|   -6.061652|    0.821060|    0.011577|
|          88|   -4.110801|   -6.067450|    0.821052|    0.011565|
|          89|   -4.113713|   -6.073188|    0.821044|    0.011554|
|          90|   -4.116600|   -6.078805|    0.821036|    0.011543|
|          91|   -4.119407|   -6.084253|    0.821028|    0.011532|
|          92|   -4.122085|   -6.089483|    0.821021|    0.011522|
|          93|   -4.124595|   -6.094471|    0.821014|    0.011511|
|          94|   -4.126914|   -6.099201|    0.821008|    0.011502|
|          95|   -4.129031|   -6.103671|    0.821003|    0.011492|
|          96|   -4.130954|   -6.107880|    0.821000|    0.011483|
|          97|   -4.132706|   -6.111838|    0.820999|    0.011475|
|          98|   -4.134324|   -6.115588|    0.821000|    0.011468|
|          99|   -4.135855|   -6.119157|    0.821003|    0.011461|
|         100|   -4.137350|   -6.122575|    0.821009|    0.011455|
|         101|   -4.138866|   -6.125869|    0.821014|    0.011665|
+-----------------------------------------------------------------------+
|Fixed CL Mode                           |Value                         |
+-----------------------------------------------------------------------+
|Current CL                              |0.821014                      |
|Target CL                               |0.824                         |
|Previous AOA                            |2.78945                       |
|Changed AoA by                          |0.0149559                     |
+-----------------------------------------------------------------------+
+----------------------------------------------------------------+
|  Inner_Iter|    rms[Rho]|     rms[nu]|          CL|          CD|
+----------------------------------------------------------------+
|         102|   -2.018574|   -5.975844|    0.821024|    0.011661|
|         103|   -2.403445|   -6.043979|    0.821037|    0.011658|
|         104|   -2.649134|   -6.069227|    0.821052|    0.011656|
|         105|   -2.729269|   -6.084722|    0.821069|    0.011655|
|         106|   -2.783633|   -6.096743|    0.821087|    0.011655|
|         107|   -2.853953|   -6.107161|    0.821108|    0.011656|
|         108|   -2.940867|   -6.116238|    0.821130|    0.011659|
|         109|   -3.031402|   -6.123991|    0.821153|    0.011662|
|         110|   -3.108550|   -6.130631|    0.821176|    0.011667|
|         111|   -3.163751|   -6.136242|    0.821200|    0.011672|
|         112|   -3.199064|   -6.140903|    0.821224|    0.011678|
|         113|   -3.218918|   -6.144898|    0.821247|    0.011685|
|         114|   -3.227540|   -6.148602|    0.821270|    0.011693|
|         115|   -3.230842|   -6.152263|    0.821293|    0.011702|
|         116|   -3.235285|   -6.155948|    0.821314|    0.011711|
|         117|   -3.245135|   -6.159639|    0.821333|    0.011720|
|         118|   -3.261326|   -6.163401|    0.821352|    0.011730|
|         119|   -3.282015|   -6.167267|    0.821368|    0.011740|
|         120|   -3.304030|   -6.171368|    0.821383|    0.011751|
|         121|   -3.324680|   -6.175681|    0.821397|    0.011762|
|         122|   -3.343066|   -6.180163|    0.821409|    0.011773|
|         123|   -3.360027|   -6.184776|    0.821419|    0.011784|
|         124|   -3.376991|   -6.189469|    0.821428|    0.011796|
|         125|   -3.394866|   -6.194157|    0.821436|    0.011807|
|         126|   -3.413642|   -6.198779|    0.821443|    0.011819|
|         127|   -3.432604|   -6.203259|    0.821448|    0.011831|
|         128|   -3.450748|   -6.207579|    0.821454|    0.011843|
|         129|   -3.467122|   -6.211722|    0.821458|    0.011855|
|         130|   -3.481031|   -6.215779|    0.821463|    0.011867|
|         131|   -3.492167|   -6.219716|    0.821468|    0.011879|
|         132|   -3.500728|   -6.223627|    0.821473|    0.011892|
|         133|   -3.507414|   -6.227601|    0.821479|    0.011905|
|         134|   -3.513280|   -6.231681|    0.821486|    0.011918|
|         135|   -3.519456|   -6.235861|    0.821494|    0.011931|
|         136|   -3.526887|   -6.240182|    0.821503|    0.011945|
|         137|   -3.536166|   -6.244667|    0.821514|    0.011958|
|         138|   -3.547461|   -6.249263|    0.821527|    0.011972|
|         139|   -3.560515|   -6.253844|    0.821542|    0.011987|
|         140|   -3.574681|   -6.258370|    0.821560|    0.012001|
|         141|   -3.589019|   -6.262826|    0.821579|    0.012016|
|         142|   -3.602466|   -6.267141|    0.821601|    0.012031|
|         143|   -3.614102|   -6.271232|    0.821625|    0.012047|
|         144|   -3.623425|   -6.275072|    0.821653|    0.012062|
|         145|   -3.630512|   -6.278594|    0.821683|    0.012078|
|         146|   -3.635979|   -6.281835|    0.821716|    0.012094|
|         147|   -3.640752|   -6.284611|    0.821752|    0.012110|
|         148|   -3.645783|   -6.286886|    0.821791|    0.012126|
|         149|   -3.651816|   -6.288665|    0.821834|    0.012142|
|         150|   -3.659273|   -6.289866|    0.821881|    0.012158|
|         151|   -3.668227|   -6.290475|    0.821932|    0.012174|
|         152|   -3.678455|   -6.290514|    0.821986|    0.012190|
|         153|   -3.689528|   -6.290007|    0.822045|    0.012206|
|         154|   -3.700920|   -6.288990|    0.822107|    0.012222|
|         155|   -3.712128|   -6.287557|    0.822174|    0.012238|
|         156|   -3.722773|   -6.285758|    0.822245|    0.012254|
|         157|   -3.732659|   -6.283673|    0.822321|    0.012269|
|         158|   -3.741785|   -6.281403|    0.822400|    0.012284|
|         159|   -3.750304|   -6.279065|    0.822483|    0.012299|
|         160|   -3.758457|   -6.276761|    0.822570|    0.012313|
|         161|   -3.766496|   -6.274614|    0.822661|    0.012327|
|         162|   -3.774632|   -6.272764|    0.822754|    0.012341|
|         163|   -3.783007|   -6.271320|    0.822851|    0.012354|
|         164|   -3.791685|   -6.270408|    0.822950|    0.012367|
|         165|   -3.800670|   -6.270046|    0.823050|    0.012380|
|         166|   -3.809926|   -6.270313|    0.823152|    0.012391|
|         167|   -3.819396|   -6.271285|    0.823255|    0.012403|
|         168|   -3.829026|   -6.272967|    0.823358|    0.012413|
|         169|   -3.838769|   -6.275350|    0.823461|    0.012423|
|         170|   -3.848592|   -6.278420|    0.823562|    0.012432|
|         171|   -3.858466|   -6.282143|    0.823662|    0.012441|
|         172|   -3.868368|   -6.286433|    0.823759|    0.012449|
|         173|   -3.878266|   -6.291195|    0.823852|    0.012456|
|         174|   -3.888116|   -6.296284|    0.823942|    0.012462|
|         175|   -3.897864|   -6.301539|    0.824026|    0.012467|
|         176|   -3.907439|   -6.306750|    0.824106|    0.012472|
|         177|   -3.916764|   -6.311689|    0.824179|    0.012476|
|         178|   -3.925753|   -6.316135|    0.824246|    0.012479|
|         179|   -3.934320|   -6.319852|    0.824307|    0.012481|
|         180|   -3.942384|   -6.322634|    0.824360|    0.012482|
|         181|   -3.949868|   -6.324334|    0.824406|    0.012482|
|         182|   -3.956712|   -6.324820|    0.824444|    0.012482|
|         183|   -3.962867|   -6.324047|    0.824474|    0.012480|
|         184|   -3.968304|   -6.322047|    0.824496|    0.012478|
|         185|   -3.973014|   -6.318913|    0.824510|    0.012475|
|         186|   -3.977009|   -6.314835|    0.824516|    0.012471|
|         187|   -3.980323|   -6.309982|    0.824515|    0.012467|
|         188|   -3.983008|   -6.304557|    0.824507|    0.012461|
|         189|   -3.985136|   -6.298842|    0.824491|    0.012455|
|         190|   -3.986790|   -6.293107|    0.824468|    0.012449|
|         191|   -3.988067|   -6.287569|    0.824440|    0.012441|
|         192|   -3.989065|   -6.282426|    0.824405|    0.012434|
|         193|   -3.989887|   -6.277855|    0.824364|    0.012425|
|         194|   -3.990630|   -6.274001|    0.824319|    0.012416|
|         195|   -3.991387|   -6.270980|    0.824269|    0.012407|
|         196|   -3.992243|   -6.268858|    0.824215|    0.012397|
|         197|   -3.993271|   -6.267739|    0.824158|    0.012387|
|         198|   -3.994534|   -6.267643|    0.824097|    0.012376|
|         199|   -3.996085|   -6.268584|    0.824035|    0.012365|
|         200|   -3.997964|   -6.270545|    0.823970|    0.012354|
|         201|   -4.000200|   -6.273493|    0.823903|    0.012344|
+-----------------------------------------------------------------------+
|Fixed CL Mode                           |Value                         |
+-----------------------------------------------------------------------+
|Current CL                              |0.823903                      |
|Target CL                               |0.824                         |
|Previous AOA                            |2.80441                       |
|Changed AoA by                          |0.000151978                   |
+-----------------------------------------------------------------------+
+----------------------------------------------------------------+
|  Inner_Iter|    rms[Rho]|     rms[nu]|          CL|          CD|
+----------------------------------------------------------------+
|         202|   -3.854936|   -6.277300|    0.823836|    0.012333|
|         203|   -3.963041|   -6.282066|    0.823768|    0.012321|
|         204|   -3.985380|   -6.287580|    0.823700|    0.012309|
|         205|   -3.993364|   -6.293734|    0.823632|    0.012297|
|         206|   -4.001205|   -6.300387|    0.823565|    0.012284|
|         207|   -4.009479|   -6.307361|    0.823499|    0.012272|
|         208|   -4.017587|   -6.314463|    0.823435|    0.012260|
|         209|   -4.025188|   -6.321489|    0.823372|    0.012248|
|         210|   -4.032275|   -6.328226|    0.823312|    0.012236|
|         211|   -4.038970|   -6.334459|    0.823254|    0.012224|
|         212|   -4.045341|   -6.339988|    0.823199|    0.012212|
|         213|   -4.051367|   -6.344635|    0.823148|    0.012201|
|         214|   -4.056993|   -6.348247|    0.823100|    0.012190|
|         215|   -4.062185|   -6.350723|    0.823055|    0.012179|
|         216|   -4.066946|   -6.352015|    0.823015|    0.012168|
|         217|   -4.071302|   -6.352128|    0.822978|    0.012158|
|         218|   -4.075281|   -6.351155|    0.822946|    0.012148|
|         219|   -4.078907|   -6.349182|    0.822919|    0.012139|
|         220|   -4.082195|   -6.346340|    0.822895|    0.012130|
|         221|   -4.085155|   -6.342798|    0.822877|    0.012121|
|         222|   -4.087794|   -6.338733|    0.822863|    0.012113|
|         223|   -4.090118|   -6.334337|    0.822854|    0.012106|
|         224|   -4.092134|   -6.329826|    0.822850|    0.012099|
|         225|   -4.093852|   -6.325306|    0.822851|    0.012093|
|         226|   -4.095294|   -6.320923|    0.822856|    0.012087|
|         227|   -4.096496|   -6.316793|    0.822866|    0.012082|
|         228|   -4.097511|   -6.313033|    0.822881|    0.012078|
|         229|   -4.098403|   -6.309734|    0.822900|    0.012074|
|         230|   -4.099247|   -6.306972|    0.822923|    0.012070|
|         231|   -4.100116|   -6.304799|    0.822950|    0.012068|
|         232|   -4.101079|   -6.303244|    0.822982|    0.012066|
|         233|   -4.102194|   -6.302315|    0.823016|    0.012064|
|         234|   -4.103509|   -6.302007|    0.823055|    0.012063|
|         235|   -4.105055|   -6.302319|    0.823096|    0.012063|
|         236|   -4.106851|   -6.303243|    0.823141|    0.012063|
|         237|   -4.108906|   -6.304741|    0.823187|    0.012064|
|         238|   -4.111219|   -6.306779|    0.823237|    0.012065|
|         239|   -4.113786|   -6.309302|    0.823288|    0.012067|
|         240|   -4.116597|   -6.312251|    0.823340|    0.012069|
|         241|   -4.119642|   -6.315564|    0.823394|    0.012072|
|         242|   -4.122908|   -6.319170|    0.823449|    0.012075|
|         243|   -4.126384|   -6.322999|    0.823504|    0.012079|
|         244|   -4.130056|   -6.326982|    0.823560|    0.012082|
|         245|   -4.133910|   -6.331054|    0.823616|    0.012086|
|         246|   -4.137931|   -6.335149|    0.823671|    0.012091|
|         247|   -4.142103|   -6.339204|    0.823725|    0.012095|
|         248|   -4.146409|   -6.343168|    0.823779|    0.012100|
|         249|   -4.150831|   -6.346983|    0.823831|    0.012105|
|         250|   -4.155352|   -6.350627|    0.823882|    0.012110|
|         251|   -4.159954|   -6.354085|    0.823931|    0.012115|
|         252|   -4.164620|   -6.357350|    0.823978|    0.012120|
|         253|   -4.169335|   -6.360420|    0.824023|    0.012126|
|         254|   -4.174083|   -6.363301|    0.824065|    0.012131|
|         255|   -4.178850|   -6.366003|    0.824106|    0.012136|
|         256|   -4.183622|   -6.368544|    0.824143|    0.012141|
|         257|   -4.188384|   -6.370942|    0.824179|    0.012146|
|         258|   -4.193121|   -6.373219|    0.824212|    0.012151|
|         259|   -4.197816|   -6.375391|    0.824242|    0.012155|
|         260|   -4.202448|   -6.377476|    0.824270|    0.012160|
|         261|   -4.206996|   -6.379485|    0.824295|    0.012165|
|         262|   -4.211433|   -6.381428|    0.824318|    0.012169|
|         263|   -4.215731|   -6.383302|    0.824339|    0.012173|
|         264|   -4.219858|   -6.385105|    0.824358|    0.012177|
|         265|   -4.223778|   -6.386840|    0.824374|    0.012180|
|         266|   -4.227455|   -6.388501|    0.824389|    0.012184|
|         267|   -4.230851|   -6.390085|    0.824402|    0.012187|
|         268|   -4.233927|   -6.391581|    0.824413|    0.012191|
|         269|   -4.236646|   -6.392984|    0.824423|    0.012193|
|         270|   -4.238973|   -6.394288|    0.824432|    0.012196|
|         271|   -4.240877|   -6.395495|    0.824440|    0.012199|
|         272|   -4.242331|   -6.396609|    0.824446|    0.012201|
|         273|   -4.243316|   -6.397644|    0.824453|    0.012204|
|         274|   -4.243819|   -6.398613|    0.824458|    0.012206|
|         275|   -4.243837|   -6.399541|    0.824463|    0.012208|
|         276|   -4.243372|   -6.400456|    0.824468|    0.012210|
|         277|   -4.242439|   -6.401390|    0.824472|    0.012212|
|         278|   -4.241060|   -6.402378|    0.824477|    0.012213|
|         279|   -4.239263|   -6.403455|    0.824481|    0.012215|
|         280|   -4.237085|   -6.404659|    0.824485|    0.012217|
|         281|   -4.234568|   -6.406019|    0.824489|    0.012218|
|         282|   -4.231757|   -6.407557|    0.824494|    0.012219|
|         283|   -4.228701|   -6.409303|    0.824498|    0.012220|
|         284|   -4.225450|   -6.411281|    0.824502|    0.012221|
|         285|   -4.222054|   -6.413513|    0.824507|    0.012222|
|         286|   -4.218563|   -6.415999|    0.824511|    0.012223|
|         287|   -4.215023|   -6.418736|    0.824516|    0.012224|
|         288|   -4.211480|   -6.421709|    0.824520|    0.012225|
|         289|   -4.207976|   -6.424890|    0.824524|    0.012225|
|         290|   -4.204548|   -6.428249|    0.824528|    0.012226|
|         291|   -4.201230|   -6.431742|    0.824532|    0.012226|
|         292|   -4.198054|   -6.435316|    0.824535|    0.012226|
|         293|   -4.195046|   -6.438916|    0.824538|    0.012226|
|         294|   -4.192229|   -6.442487|    0.824541|    0.012226|
|         295|   -4.189623|   -6.445971|    0.824543|    0.012226|
|         296|   -4.187244|   -6.449309|    0.824545|    0.012225|
|         297|   -4.185106|   -6.452450|    0.824546|    0.012224|
|         298|   -4.183221|   -6.455348|    0.824546|    0.012223|
|         299|   -4.181597|   -6.457973|    0.824546|    0.012222|
|         300|   -4.180240|   -6.460304|    0.824546|    0.012221|
|         301|   -4.179154|   -6.462329|    0.824545|    0.012180|
+-----------------------------------------------------------------------+
|Fixed CL Mode                           |Value                         |
+-----------------------------------------------------------------------+
|Current CL                              |0.824545                      |
|Target CL                               |0.824                         |
|Previous AOA                            |2.80456                       |
|Changed AoA by                          |-0.00272903                   |
+-----------------------------------------------------------------------+
+----------------------------------------------------------------+
|  Inner_Iter|    rms[Rho]|     rms[nu]|          CL|          CD|
+----------------------------------------------------------------+
|         302|   -2.757044|   -6.431636|    0.824544|    0.012178|
|         303|   -3.141063|   -6.449203|    0.824542|    0.012176|
|         304|   -3.385364|   -6.455245|    0.824539|    0.012174|
|         305|   -3.464476|   -6.458674|    0.824536|    0.012172|
|         306|   -3.516967|   -6.460964|    0.824533|    0.012169|
|         307|   -3.583614|   -6.462511|    0.824529|    0.012166|
|         308|   -3.663953|   -6.463480|    0.824525|    0.012163|
|         309|   -3.744216|   -6.463994|    0.824521|    0.012160|
|         310|   -3.808634|   -6.464140|    0.824517|    0.012156|
|         311|   -3.851705|   -6.463977|    0.824513|    0.012152|
|         312|   -3.877673|   -6.463556|    0.824509|    0.012149|
|         313|   -3.891729|   -6.462948|    0.824505|    0.012145|
|         314|   -3.897851|   -6.462234|    0.824502|    0.012140|
|         315|   -3.900563|   -6.461471|    0.824499|    0.012136|
|         316|   -3.904496|   -6.460688|    0.824496|    0.012132|
|         317|   -3.912609|   -6.459892|    0.824494|    0.012127|
|         318|   -3.925370|   -6.459082|    0.824493|    0.012123|
|         319|   -3.941207|   -6.458287|    0.824492|    0.012118|
|         320|   -3.957709|   -6.457535|    0.824492|    0.012114|
|         321|   -3.973006|   -6.456847|    0.824492|    0.012109|
|         322|   -3.986585|   -6.456240|    0.824494|    0.012104|
|         323|   -3.999091|   -6.455727|    0.824496|    0.012100|
|         324|   -4.011492|   -6.455319|    0.824499|    0.012095|
|         325|   -4.024354|   -6.455034|    0.824503|    0.012091|
|         326|   -4.037635|   -6.454891|    0.824507|    0.012086|
|         327|   -4.050866|   -6.454914|    0.824513|    0.012082|
|         328|   -4.063447|   -6.455126|    0.824519|    0.012078|
|         329|   -4.074848|   -6.455550|    0.824526|    0.012074|
|         330|   -4.084719|   -6.456206|    0.824534|    0.012070|
|         331|   -4.092931|   -6.457107|    0.824542|    0.012066|
|         332|   -4.099622|   -6.458259|    0.824551|    0.012063|
|         333|   -4.105181|   -6.459670|    0.824560|    0.012059|
|         334|   -4.110170|   -6.461339|    0.824569|    0.012056|
|         335|   -4.115187|   -6.463252|    0.824579|    0.012054|
|         336|   -4.120719|   -6.465392|    0.824590|    0.012051|
|         337|   -4.127047|   -6.467733|    0.824600|    0.012049|
|         338|   -4.134210|   -6.470245|    0.824610|    0.012046|
|         339|   -4.142008|   -6.472894|    0.824621|    0.012044|
|         340|   -4.150052|   -6.475655|    0.824631|    0.012043|
|         341|   -4.157839|   -6.478491|    0.824641|    0.012041|
|         342|   -4.164864|   -6.481370|    0.824651|    0.012040|
|         343|   -4.170738|   -6.484259|    0.824660|    0.012039|
|         344|   -4.175292|   -6.487130|    0.824669|    0.012038|
|         345|   -4.178611|   -6.489957|    0.824678|    0.012038|
|         346|   -4.180990|   -6.492723|    0.824686|    0.012038|
|         347|   -4.182833|   -6.495418|    0.824693|    0.012037|
|         348|   -4.184535|   -6.498031|    0.824699|    0.012038|
|         349|   -4.186392|   -6.500550|    0.824704|    0.012038|
|         350|   -4.188551|   -6.502980|    0.824709|    0.012038|
|         351|   -4.191015|   -6.505330|    0.824713|    0.012039|
|         352|   -4.193671|   -6.507613|    0.824715|    0.012040|
|         353|   -4.196343|   -6.509847|    0.824717|    0.012040|
|         354|   -4.198851|   -6.512053|    0.824717|    0.012041|
|         355|   -4.201053|   -6.514252|    0.824717|    0.012042|
|         356|   -4.202874|   -6.516464|    0.824715|    0.012044|
|         357|   -4.204316|   -6.518707|    0.824712|    0.012045|
|         358|   -4.205442|   -6.521009|    0.824708|    0.012046|
|         359|   -4.206356|   -6.523392|    0.824702|    0.012048|
|         360|   -4.207177|   -6.525879|    0.824696|    0.012049|
|         361|   -4.208015|   -6.528495|    0.824689|    0.012050|
|         362|   -4.208964|   -6.531258|    0.824681|    0.012052|
|         363|   -4.210088|   -6.534187|    0.824671|    0.012053|
|         364|   -4.211434|   -6.537294|    0.824661|    0.012055|
|         365|   -4.213027|   -6.540591|    0.824651|    0.012056|
|         366|   -4.214886|   -6.544083|    0.824639|    0.012058|
|         367|   -4.217025|   -6.547767|    0.824627|    0.012059|
|         368|   -4.219457|   -6.551641|    0.824615|    0.012061|
|         369|   -4.222198|   -6.555700|    0.824603|    0.012062|
|         370|   -4.225263|   -6.559926|    0.824590|    0.012063|
|         371|   -4.228668|   -6.564300|    0.824577|    0.012065|
|         372|   -4.232428|   -6.568803|    0.824565|    0.012066|
|         373|   -4.236553|   -6.573407|    0.824552|    0.012067|
|         374|   -4.241049|   -6.578083|    0.824540|    0.012068|
|         375|   -4.245918|   -6.582798|    0.824528|    0.012069|
|         376|   -4.251157|   -6.587520|    0.824517|    0.012070|
|         377|   -4.256759|   -6.592212|    0.824506|    0.012071|
|         378|   -4.262711|   -6.596839|    0.824497|    0.012072|
|         379|   -4.268999|   -6.601370|    0.824487|    0.012073|
|         380|   -4.275603|   -6.605773|    0.824479|    0.012074|
|         381|   -4.282498|   -6.610020|    0.824472|    0.012075|
|         382|   -4.289659|   -6.614086|    0.824465|    0.012075|
|         383|   -4.297052|   -6.617950|    0.824460|    0.012076|
|         384|   -4.304640|   -6.621596|    0.824455|    0.012076|
|         385|   -4.312381|   -6.625007|    0.824452|    0.012077|
|         386|   -4.320230|   -6.628179|    0.824449|    0.012077|
|         387|   -4.328134|   -6.631117|    0.824447|    0.012077|
|         388|   -4.336039|   -6.633838|    0.824446|    0.012077|
|         389|   -4.343885|   -6.636362|    0.824446|    0.012077|
|         390|   -4.351611|   -6.638714|    0.824447|    0.012077|
|         391|   -4.359152|   -6.640923|    0.824449|    0.012077|
|         392|   -4.366443|   -6.643019|    0.824451|    0.012076|
|         393|   -4.373421|   -6.645029|    0.824453|    0.012076|
|         394|   -4.380023|   -6.646982|    0.824457|    0.012075|
|         395|   -4.386192|   -6.648907|    0.824461|    0.012074|
|         396|   -4.391875|   -6.650832|    0.824465|    0.012073|
|         397|   -4.397027|   -6.652786|    0.824470|    0.012073|
|         398|   -4.401612|   -6.654796|    0.824475|    0.012072|
|         399|   -4.405605|   -6.656884|    0.824480|    0.012070|
|         400|   -4.408989|   -6.659062|    0.824486|    0.012069|
|         401|   -4.411764|   -6.661340|    0.824493|    0.012033|
+-----------------------------------------------------------------------+
|Fixed CL Mode                           |Value                         |
+-----------------------------------------------------------------------+
|Current CL                              |0.824493                      |
|Target CL                               |0.824                         |
|Previous AOA                            |2.80183                       |
|Changed AoA by                          |-0.00243107                   |
+-----------------------------------------------------------------------+
+----------------------------------------------------------------+
|  Inner_Iter|    rms[Rho]|     rms[nu]|          CL|          CD|
+----------------------------------------------------------------+
|         402|   -2.807459|   -6.603217|    0.824499|    0.012032|
|         403|   -3.191093|   -6.634522|    0.824505|    0.012031|
|         404|   -3.433237|   -6.646190|    0.824512|    0.012029|
|         405|   -3.511258|   -6.653845|    0.824519|    0.012028|
|         406|   -3.564413|   -6.660080|    0.824525|    0.012026|
|         407|   -3.633012|   -6.665517|    0.824532|    0.012025|
|         408|   -3.717124|   -6.670377|    0.824539|    0.012023|
|         409|   -3.803816|   -6.674807|    0.824546|    0.012022|
|         410|   -3.877031|   -6.678903|    0.824553|    0.012021|
|         411|   -3.929364|   -6.682697|    0.824559|    0.012019|
|         412|   -3.963154|   -6.686216|    0.824566|    0.012018|
|         413|   -3.982549|   -6.689545|    0.824572|    0.012017|
|         414|   -3.991317|   -6.692793|    0.824579|    0.012015|
|         415|   -3.994733|   -6.696037|    0.824585|    0.012014|
|         416|   -3.998641|   -6.699296|    0.824591|    0.012013|
|         417|   -4.006938|   -6.702553|    0.824597|    0.012012|
|         418|   -4.020486|   -6.705800|    0.824603|    0.012011|
|         419|   -4.037652|   -6.709045|    0.824608|    0.012010|
|         420|   -4.055723|   -6.712308|    0.824613|    0.012009|
|         421|   -4.072537|   -6.715604|    0.824618|    0.012008|
|         422|   -4.087501|   -6.718929|    0.824622|    0.012007|
|         423|   -4.101392|   -6.722253|    0.824626|    0.012006|
|         424|   -4.115343|   -6.725536|    0.824630|    0.012006|
|         425|   -4.129971|   -6.728736|    0.824633|    0.012005|
|         426|   -4.145123|   -6.731820|    0.824636|    0.012005|
|         427|   -4.160119|   -6.734763|    0.824639|    0.012004|
|         428|   -4.174135|   -6.737553|    0.824641|    0.012004|
|         429|   -4.186488|   -6.740186|    0.824643|    0.012004|
|         430|   -4.196778|   -6.742654|    0.824644|    0.012004|
|         431|   -4.204952|   -6.744985|    0.824645|    0.012004|
|         432|   -4.211318|   -6.747196|    0.824646|    0.012004|
|         433|   -4.216506|   -6.749304|    0.824646|    0.012004|
|         434|   -4.221334|   -6.751319|    0.824646|    0.012004|
|         435|   -4.226622|   -6.753259|    0.824646|    0.012005|
|         436|   -4.233015|   -6.755138|    0.824645|    0.012005|
|         437|   -4.240886|   -6.756975|    0.824644|    0.012006|
|         438|   -4.250292|   -6.758785|    0.824643|    0.012006|
|         439|   -4.260989|   -6.760581|    0.824641|    0.012007|
|         440|   -4.272482|   -6.762375|    0.824639|    0.012008|
|         441|   -4.284106|   -6.764177|    0.824636|    0.012008|
|         442|   -4.295162|   -6.765996|    0.824634|    0.012009|
|         443|   -4.305080|   -6.767834|    0.824631|    0.012010|
|         444|   -4.313573|   -6.769716|    0.824628|    0.012012|
|         445|   -4.320719|   -6.771669|    0.824624|    0.012013|
|         446|   -4.326917|   -6.773713|    0.824620|    0.012014|
|         447|   -4.332756|   -6.775864|    0.824616|    0.012016|
|         448|   -4.338841|   -6.778131|    0.824612|    0.012017|
|         449|   -4.345648|   -6.780523|    0.824607|    0.012019|
|         450|   -4.353446|   -6.783032|    0.824602|    0.012020|
|         451|   -4.362274|   -6.785641|    0.824596|    0.012022|
|         452|   -4.371972|   -6.788335|    0.824590|    0.012023|
|         453|   -4.382242|   -6.791113|    0.824584|    0.012025|
|         454|   -4.392728|   -6.793962|    0.824577|    0.012027|
|         455|   -4.403090|   -6.796869|    0.824569|    0.012029|
|         456|   -4.413073|   -6.799788|    0.824561|    0.012031|
|         457|   -4.422539|   -6.802690|    0.824553|    0.012033|
|         458|   -4.431470|   -6.805570|    0.824544|    0.012035|
|         459|   -4.439942|   -6.808398|    0.824534|    0.012036|
|         460|   -4.448081|   -6.811163|    0.824524|    0.012038|
|         461|   -4.456022|   -6.813866|    0.824513|    0.012040|
|         462|   -4.463868|   -6.816507|    0.824502|    0.012042|
|         463|   -4.471681|   -6.819104|    0.824490|    0.012044|
|         464|   -4.479471|   -6.821679|    0.824478|    0.012046|
|         465|   -4.487212|   -6.824262|    0.824465|    0.012048|
|         466|   -4.494856|   -6.826895|    0.824452|    0.012049|
|         467|   -4.502344|   -6.829631|    0.824439|    0.012051|
|         468|   -4.509625|   -6.832518|    0.824425|    0.012053|
|         469|   -4.516660|   -6.835607|    0.824411|    0.012054|
|         470|   -4.523420|   -6.838955|    0.824398|    0.012056|
|         471|   -4.529890|   -6.842617|    0.824384|    0.012057|
|         472|   -4.536062|   -6.846645|    0.824370|    0.012059|
|         473|   -4.541932|   -6.851082|    0.824357|    0.012060|
|         474|   -4.547497|   -6.855966|    0.824344|    0.012061|
|         475|   -4.552754|   -6.861320|    0.824332|    0.012062|
|         476|   -4.557703|   -6.867155|    0.824320|    0.012063|
|         477|   -4.562348|   -6.873470|    0.824309|    0.012064|
|         478|   -4.566700|   -6.880242|    0.824298|    0.012065|
|         479|   -4.570774|   -6.887435|    0.824289|    0.012066|
|         480|   -4.574595|   -6.895001|    0.824280|    0.012066|
|         481|   -4.578195|   -6.902874|    0.824273|    0.012067|
|         482|   -4.581612|   -6.910970|    0.824266|    0.012067|
|         483|   -4.584889|   -6.919189|    0.824261|    0.012068|
|         484|   -4.588072|   -6.927418|    0.824256|    0.012068|
|         485|   -4.591210|   -6.935535|    0.824253|    0.012068|
|         486|   -4.594352|   -6.943411|    0.824251|    0.012068|
|         487|   -4.597545|   -6.950913|    0.824250|    0.012067|
|         488|   -4.600838|   -6.957940|    0.824250|    0.012067|
|         489|   -4.604274|   -6.964405|    0.824252|    0.012066|
|         490|   -4.607894|   -6.970231|    0.824254|    0.012066|
|         491|   -4.611737|   -6.975389|    0.824258|    0.012065|
|         492|   -4.615836|   -6.979900|    0.824263|    0.012064|
|         493|   -4.620220|   -6.983812|    0.824268|    0.012063|
|         494|   -4.624913|   -6.987202|    0.824275|    0.012062|
|         495|   -4.629934|   -6.990169|    0.824283|    0.012060|
|         496|   -4.635296|   -6.992831|    0.824291|    0.012059|
|         497|   -4.641006|   -6.995308|    0.824300|    0.012057|
|         498|   -4.647067|   -6.997726|    0.824310|    0.012055|
|         499|   -4.653473|   -7.000202|    0.824320|    0.012053|
|         500|   -4.660216|   -7.002841|    0.824331|    0.012051|
|         501|   -4.667278|   -7.005734|    0.824343|    0.012025|
+-----------------------------------------------------------------------+
|Fixed CL Mode                           |Value                         |
+-----------------------------------------------------------------------+
|Current CL                              |0.824343                      |
|Target CL                               |0.824                         |
|Previous AOA                            |2.7994                        |
|Changed AoA by                          |-0.00165623                   |
+-----------------------------------------------------------------------+
+----------------------------------------------------------------+
|  Inner_Iter|    rms[Rho]|     rms[nu]|          CL|          CD|
+----------------------------------------------------------------+
|         502|   -2.974165|   -6.888926|    0.824355|    0.012023|
|         503|   -3.357470|   -6.944343|    0.824367|    0.012021|
|         504|   -3.598472|   -6.965485|    0.824380|    0.012019|
|         505|   -3.676014|   -6.979478|    0.824392|    0.012016|
|         506|   -3.729393|   -6.991229|    0.824405|    0.012014|
|         507|   -3.798636|   -7.001842|    0.824418|    0.012011|
|         508|   -3.884065|   -7.011565|    0.824431|    0.012009|
|         509|   -3.973287|   -7.020476|    0.824444|    0.012006|
|         510|   -4.050512|   -7.028560|    0.824457|    0.012003|
|         511|   -4.107788|   -7.035692|    0.824469|    0.012001|
|         512|   -4.146475|   -7.041768|    0.824482|    0.011998|
|         513|   -4.169850|   -7.046810|    0.824494|    0.011995|
|         514|   -4.181234|   -7.050964|    0.824505|    0.011993|
|         515|   -4.186161|   -7.054397|    0.824516|    0.011990|
|         516|   -4.191206|   -7.057145|    0.824527|    0.011987|
|         517|   -4.200933|   -7.059183|    0.824537|    0.011985|
|         518|   -4.216546|   -7.060526|    0.824547|    0.011982|
|         519|   -4.236420|   -7.061270|    0.824556|    0.011980|
|         520|   -4.257594|   -7.061559|    0.824565|    0.011978|
|         521|   -4.277578|   -7.061535|    0.824572|    0.011975|
|         522|   -4.295591|   -7.061298|    0.824579|    0.011973|
|         523|   -4.312453|   -7.060899|    0.824586|    0.011971|
|         524|   -4.329466|   -7.060368|    0.824592|    0.011969|
|         525|   -4.347358|   -7.059725|    0.824597|    0.011967|
|         526|   -4.365934|   -7.058987|    0.824601|    0.011965|
|         527|   -4.384327|   -7.058194|    0.824605|    0.011963|
|         528|   -4.401446|   -7.057393|    0.824608|    0.011961|
|         529|   -4.416352|   -7.056625|    0.824610|    0.011960|
|         530|   -4.428462|   -7.055923|    0.824612|    0.011958|
|         531|   -4.437657|   -7.055298|    0.824613|    0.011957|
|         532|   -4.444322|   -7.054801|    0.824614|    0.011956|
|         533|   -4.449287|   -7.054440|    0.824614|    0.011955|
|         534|   -4.453635|   -7.054200|    0.824613|    0.011954|
|         535|   -4.458439|   -7.054053|    0.824612|    0.011953|
|         536|   -4.464528|   -7.053954|    0.824610|    0.011952|
|         537|   -4.472366|   -7.053855|    0.824608|    0.011952|
|         538|   -4.482005|   -7.053700|    0.824605|    0.011951|
|         539|   -4.493108|   -7.053447|    0.824602|    0.011951|
|         540|   -4.505006|   -7.053051|    0.824598|    0.011951|
|         541|   -4.516808|   -7.052475|    0.824594|    0.011951|
|         542|   -4.527583|   -7.051700|    0.824590|    0.011951|
|         543|   -4.536587|   -7.050726|    0.824586|    0.011952|
|         544|   -4.543491|   -7.049568|    0.824581|    0.011952|
|         545|   -4.548472|   -7.048254|    0.824575|    0.011953|
|         546|   -4.552144|   -7.046836|    0.824570|    0.011954|
|         547|   -4.555342|   -7.045316|    0.824564|    0.011955|
|         548|   -4.558884|   -7.043744|    0.824558|    0.011957|
|         549|   -4.563390|   -7.042164|    0.824551|    0.011958|
|         550|   -4.569190|   -7.040614|    0.824544|    0.011960|
|         551|   -4.576325|   -7.039131|    0.824537|    0.011961|
|         552|   -4.584597|   -7.037728|    0.824530|    0.011963|
|         553|   -4.593650|   -7.036442|    0.824522|    0.011965|
|         554|   -4.603070|   -7.035275|    0.824514|    0.011967|
|         555|   -4.612477|   -7.034205|    0.824505|    0.011969|
|         556|   -4.621601|   -7.033207|    0.824496|    0.011972|
|         557|   -4.630319|   -7.032256|    0.824486|    0.011974|
|         558|   -4.638654|   -7.031327|    0.824477|    0.011977|
|         559|   -4.646739|   -7.030371|    0.824466|    0.011980|
|         560|   -4.654764|   -7.029365|    0.824455|    0.011982|
|         561|   -4.662922|   -7.028294|    0.824444|    0.011985|
|         562|   -4.671371|   -7.027143|    0.824432|    0.011988|
|         563|   -4.680214|   -7.025906|    0.824420|    0.011991|
|         564|   -4.689496|   -7.024588|    0.824408|    0.011994|
|         565|   -4.699213|   -7.023206|    0.824395|    0.011997|
|         566|   -4.709332|   -7.021788|    0.824382|    0.012000|
|         567|   -4.719806|   -7.020372|    0.824368|    0.012003|
|         568|   -4.730585|   -7.019012|    0.824355|    0.012007|
|         569|   -4.741626|   -7.017768|    0.824341|    0.012010|
|         570|   -4.752892|   -7.016707|    0.824327|    0.012013|
|         571|   -4.764348|   -7.015893|    0.824313|    0.012016|
|         572|   -4.775954|   -7.015386|    0.824299|    0.012019|
|         573|   -4.787664|   -7.015240|    0.824285|    0.012023|
|         574|   -4.799412|   -7.015497|    0.824271|    0.012026|
|         575|   -4.811121|   -7.016187|    0.824258|    0.012029|
|         576|   -4.822692|   -7.017325|    0.824245|    0.012032|
|         577|   -4.834017|   -7.018905|    0.824232|    0.012035|
|         578|   -4.844978|   -7.020907|    0.824220|    0.012038|
|         579|   -4.855454|   -7.023297|    0.824208|    0.012041|
|         580|   -4.865330|   -7.026017|    0.824197|    0.012044|
|         581|   -4.874498|   -7.028989|    0.824186|    0.012046|
|         582|   -4.882870|   -7.032127|    0.824177|    0.012049|
|         583|   -4.890377|   -7.035331|    0.824168|    0.012052|
|         584|   -4.896976|   -7.038493|    0.824159|    0.012054|
|         585|   -4.902650|   -7.041518|    0.824152|    0.012056|
|         586|   -4.907412|   -7.044350|    0.824145|    0.012059|
|         587|   -4.911304|   -7.046809|    0.824139|    0.012061|
|         588|   -4.914390|   -7.048824|    0.824134|    0.012063|
|         589|   -4.916755|   -7.050337|    0.824130|    0.012064|
|         590|   -4.918503|   -7.051319|    0.824127|    0.012066|
|         591|   -4.919744|   -7.051763|    0.824125|    0.012067|
|         592|   -4.920594|   -7.051692|    0.824123|    0.012069|
|         593|   -4.921168|   -7.051153|    0.824122|    0.012070|
|         594|   -4.921579|   -7.050217|    0.824122|    0.012071|
|         595|   -4.921927|   -7.048967|    0.824123|    0.012072|
|         596|   -4.922307|   -7.047499|    0.824124|    0.012073|
|         597|   -4.922799|   -7.045910|    0.824126|    0.012073|
|         598|   -4.923473|   -7.044294|    0.824128|    0.012073|
|         599|   -4.924388|   -7.042738|    0.824131|    0.012074|
|         600|   -4.925589|   -7.041313|    0.824135|    0.012074|
|         601|   -4.927112|   -7.040077|    0.824139|    0.012064|
+-----------------------------------------------------------------------+
|Fixed CL Mode                           |Value                         |
+-----------------------------------------------------------------------+
|Current CL                              |0.824139                      |
|Target CL                               |0.824                         |
|Previous AOA                            |2.79774                       |
|Changed AoA by                          |-0.000675589                  |
+-----------------------------------------------------------------------+
+----------------------------------------------------------------+
|  Inner_Iter|    rms[Rho]|     rms[nu]|          CL|          CD|
+----------------------------------------------------------------+
|         602|   -3.363539|   -7.009730|    0.824144|    0.012064|
|         603|   -3.745465|   -7.023102|    0.824149|    0.012063|
|         604|   -3.981694|   -7.026866|    0.824154|    0.012063|
|         605|   -4.056046|   -7.028961|    0.824160|    0.012062|
|         606|   -4.107868|   -7.030589|    0.824166|    0.012061|
|         607|   -4.175530|   -7.031978|    0.824172|    0.012060|
|         608|   -4.258902|   -7.033157|    0.824178|    0.012059|
|         609|   -4.346063|   -7.034110|    0.824185|    0.012058|
|         610|   -4.422435|   -7.034798|    0.824191|    0.012057|
|         611|   -4.480839|   -7.035159|    0.824198|    0.012055|
|         612|   -4.522202|   -7.035140|    0.824204|    0.012054|
|         613|   -4.548809|   -7.034719|    0.824210|    0.012052|
|         614|   -4.563036|   -7.033895|    0.824217|    0.012050|
|         615|   -4.569834|   -7.032685|    0.824223|    0.012049|
|         616|   -4.575693|   -7.031078|    0.824229|    0.012047|
|         617|   -4.585396|   -7.029067|    0.824234|    0.012045|
|         618|   -4.600438|   -7.026687|    0.824240|    0.012043|
|         619|   -4.619493|   -7.023993|    0.824245|    0.012041|
|         620|   -4.639906|   -7.021057|    0.824250|    0.012039|
|         621|   -4.659450|   -7.017959|    0.824254|    0.012036|
|         622|   -4.677461|   -7.014773|    0.824258|    0.012034|
|         623|   -4.694693|   -7.011573|    0.824262|    0.012032|
|         624|   -4.712256|   -7.008427|    0.824266|    0.012030|
|         625|   -4.730641|   -7.005400|    0.824269|    0.012027|
|         626|   -4.749424|   -7.002552|    0.824271|    0.012025|
|         627|   -4.767554|   -6.999943|    0.824274|    0.012022|
|         628|   -4.783841|   -6.997622|    0.824276|    0.012020|
|         629|   -4.797377|   -6.995632|    0.824278|    0.012018|
|         630|   -4.807751|   -6.994007|    0.824279|    0.012015|
|         631|   -4.815100|   -6.992769|    0.824280|    0.012013|
|         632|   -4.820064|   -6.991929|    0.824281|    0.012011|
|         633|   -4.823635|   -6.991489|    0.824281|    0.012008|
|         634|   -4.826934|   -6.991438|    0.824281|    0.012006|
|         635|   -4.830965|   -6.991759|    0.824281|    0.012004|
|         636|   -4.836425|   -6.992423|    0.824281|    0.012002|
|         637|   -4.843624|   -6.993399|    0.824281|    0.012000|
|         638|   -4.852469|   -6.994650|    0.824280|    0.011997|
|         639|   -4.862511|   -6.996136|    0.824280|    0.011995|
|         640|   -4.873016|   -6.997815|    0.824279|    0.011994|
|         641|   -4.883091|   -6.999648|    0.824278|    0.011992|
|         642|   -4.891867|   -7.001597|    0.824277|    0.011990|
|         643|   -4.898717|   -7.003629|    0.824276|    0.011988|
|         644|   -4.903434|   -7.005717|    0.824275|    0.011987|
|         645|   -4.906283|   -7.007837|    0.824274|    0.011985|
|         646|   -4.907898|   -7.009975|    0.824273|    0.011984|
|         647|   -4.909070|   -7.012119|    0.824272|    0.011983|
|         648|   -4.910536|   -7.014265|    0.824271|    0.011981|
|         649|   -4.912826|   -7.016417|    0.824270|    0.011980|
|         650|   -4.916204|   -7.018576|    0.824268|    0.011980|
|         651|   -4.920674|   -7.020751|    0.824267|    0.011979|
|         652|   -4.926043|   -7.022950|    0.824266|    0.011978|
|         653|   -4.931998|   -7.025189|    0.824265|    0.011978|
|         654|   -4.938196|   -7.027480|    0.824264|    0.011977|
|         655|   -4.944343|   -7.029828|    0.824263|    0.011977|
|         656|   -4.950244|   -7.032241|    0.824262|    0.011977|
|         657|   -4.955828|   -7.034721|    0.824261|    0.011977|
|         658|   -4.961135|   -7.037269|    0.824259|    0.011977|
|         659|   -4.966284|   -7.039883|    0.824258|    0.011977|
|         660|   -4.971427|   -7.042562|    0.824256|    0.011978|
|         661|   -4.976709|   -7.045300|    0.824255|    0.011978|
|         662|   -4.982245|   -7.048092|    0.824253|    0.011979|
|         663|   -4.988104|   -7.050933|    0.824251|    0.011979|
|         664|   -4.994314|   -7.053822|    0.824249|    0.011980|
|         665|   -5.000869|   -7.056757|    0.824247|    0.011981|
|         666|   -5.007746|   -7.059741|    0.824245|    0.011982|
|         667|   -5.014916|   -7.062781|    0.824242|    0.011983|
|         668|   -5.022352|   -7.065887|    0.824240|    0.011985|
|         669|   -5.030034|   -7.069076|    0.824237|    0.011986|
|         670|   -5.037949|   -7.072367|    0.824234|    0.011987|
|         671|   -5.046088|   -7.075781|    0.824231|    0.011989|
|         672|   -5.054438|   -7.079343|    0.824228|    0.011990|
|         673|   -5.062984|   -7.083079|    0.824225|    0.011992|
|         674|   -5.071701|   -7.087018|    0.824222|    0.011994|
|         675|   -5.080553|   -7.091174|    0.824219|    0.011995|
|         676|   -5.089494|   -7.095562|    0.824216|    0.011997|
|         677|   -5.098470|   -7.100188|    0.824212|    0.011999|
|         678|   -5.107416|   -7.105052|    0.824209|    0.012001|
|         679|   -5.116266|   -7.110144|    0.824206|    0.012003|
|         680|   -5.124949|   -7.115445|    0.824204|    0.012005|
|         681|   -5.133394|   -7.120923|    0.824201|    0.012007|
|         682|   -5.141531|   -7.126539|    0.824198|    0.012009|
|         683|   -5.149294|   -7.132243|    0.824196|    0.012011|
|         684|   -5.156625|   -7.137975|    0.824193|    0.012013|
|         685|   -5.163472|   -7.143671|    0.824191|    0.012015|
|         686|   -5.169795|   -7.149260|    0.824189|    0.012017|
|         687|   -5.175565|   -7.154669|    0.824188|    0.012019|
|         688|   -5.180766|   -7.159831|    0.824186|    0.012021|
|         689|   -5.185399|   -7.164681|    0.824185|    0.012023|
|         690|   -5.189475|   -7.169168|    0.824184|    0.012025|
|         691|   -5.193021|   -7.173251|    0.824183|    0.012026|
|         692|   -5.196075|   -7.176901|    0.824182|    0.012028|
|         693|   -5.198682|   -7.180111|    0.824182|    0.012030|
|         694|   -5.200898|   -7.182891|    0.824182|    0.012032|
|         695|   -5.202782|   -7.185268|    0.824182|    0.012033|
|         696|   -5.204395|   -7.187289|    0.824182|    0.012035|
|         697|   -5.205798|   -7.189011|    0.824182|    0.012037|
|         698|   -5.207052|   -7.190502|    0.824183|    0.012038|
|         699|   -5.208213|   -7.191835|    0.824184|    0.012039|
|         700|   -5.209335|   -7.193083|    0.824184|    0.012041|
|         701|   -5.210462|   -7.194318|    0.824186|    0.012029|
+-----------------------------------------------------------------------+
|Fixed CL Mode                           |Value                         |
+-----------------------------------------------------------------------+
|Current CL                              |0.824186                      |
|Target CL                               |0.824                         |
|Previous AOA                            |2.79707                       |
|Changed AoA by                          |-0.000922154                  |
+-----------------------------------------------------------------------+
+----------------------------------------------------------------+
|  Inner_Iter|    rms[Rho]|     rms[nu]|          CL|          CD|
+----------------------------------------------------------------+
|         702|   -3.228631|   -7.101627|    0.824187|    0.012030|
|         703|   -3.613008|   -7.145312|    0.824188|    0.012031|
|         704|   -3.856083|   -7.160531|    0.824189|    0.012032|
|         705|   -3.933872|   -7.169895|    0.824190|    0.012033|
|         706|   -3.986947|   -7.177354|    0.824192|    0.012034|
|         707|   -4.056238|   -7.183838|    0.824193|    0.012035|
|         708|   -4.142248|   -7.189617|    0.824195|    0.012036|
|         709|   -4.232567|   -7.194837|    0.824196|    0.012036|
|         710|   -4.311114|   -7.199581|    0.824197|    0.012037|
|         711|   -4.369505|   -7.203852|    0.824199|    0.012037|
|         712|   -4.408866|   -7.207664|    0.824200|    0.012038|
|         713|   -4.432450|   -7.211125|    0.824201|    0.012038|
|         714|   -4.443683|   -7.214398|    0.824202|    0.012038|
|         715|   -4.448337|   -7.217599|    0.824203|    0.012039|
|         716|   -4.453236|   -7.220755|    0.824204|    0.012039|
|         717|   -4.463085|   -7.223835|    0.824204|    0.012039|
|         718|   -4.479112|   -7.226812|    0.824205|    0.012039|
|         719|   -4.499620|   -7.229696|    0.824205|    0.012039|
|         720|   -4.521509|   -7.232521|    0.824205|    0.012038|
|         721|   -4.542142|   -7.235318|    0.824205|    0.012038|
|         722|   -4.560661|   -7.238090|    0.824205|    0.012038|
|         723|   -4.577913|   -7.240815|    0.824205|    0.012037|
|         724|   -4.595285|   -7.243463|    0.824204|    0.012037|
|         725|   -4.613583|   -7.246014|    0.824203|    0.012036|
|         726|   -4.632651|   -7.248448|    0.824202|    0.012036|
|         727|   -4.651615|   -7.250781|    0.824201|    0.012035|
|         728|   -4.669351|   -7.253034|    0.824200|    0.012034|
|         729|   -4.684870|   -7.255239|    0.824198|    0.012034|
|         730|   -4.697541|   -7.257433|    0.824197|    0.012033|
|         731|   -4.707219|   -7.259652|    0.824195|    0.012032|
|         732|   -4.714301|   -7.261934|    0.824193|    0.012031|
|         733|   -4.719671|   -7.264304|    0.824191|    0.012030|
|         734|   -4.724495|   -7.266785|    0.824189|    0.012029|
|         735|   -4.729943|   -7.269379|    0.824186|    0.012028|
|         736|   -4.736936|   -7.272068|    0.824184|    0.012027|
|         737|   -4.746010|   -7.274836|    0.824181|    0.012026|
|         738|   -4.757268|   -7.277676|    0.824178|    0.012024|
|         739|   -4.770385|   -7.280551|    0.824175|    0.012023|
|         740|   -4.784659|   -7.283429|    0.824172|    0.012022|
|         741|   -4.799099|   -7.286273|    0.824169|    0.012021|
|         742|   -4.812611|   -7.289054|    0.824166|    0.012019|
|         743|   -4.824257|   -7.291744|    0.824163|    0.012018|
|         744|   -4.833537|   -7.294326|    0.824159|    0.012017|
|         745|   -4.840544|   -7.296787|    0.824156|    0.012016|
|         746|   -4.845915|   -7.299119|    0.824153|    0.012014|
|         747|   -4.850596|   -7.301312|    0.824149|    0.012013|
|         748|   -4.855552|   -7.303359|    0.824145|    0.012012|
|         749|   -4.861534|   -7.305257|    0.824141|    0.012011|
|         750|   -4.868961|   -7.306999|    0.824137|    0.012009|
|         751|   -4.877908|   -7.308599|    0.824133|    0.012008|
|         752|   -4.888147|   -7.310040|    0.824129|    0.012007|
|         753|   -4.899247|   -7.311314|    0.824125|    0.012006|
|         754|   -4.910681|   -7.312439|    0.824120|    0.012005|
|         755|   -4.921943|   -7.313403|    0.824116|    0.012004|
|         756|   -4.932650|   -7.314216|    0.824111|    0.012003|
|         757|   -4.942604|   -7.314882|    0.824106|    0.012002|
|         758|   -4.951795|   -7.315403|    0.824101|    0.012001|
|         759|   -4.960365|   -7.315800|    0.824095|    0.012000|
|         760|   -4.968540|   -7.316094|    0.824090|    0.011999|
|         761|   -4.976556|   -7.316314|    0.824084|    0.011998|
|         762|   -4.984606|   -7.316490|    0.824078|    0.011997|
|         763|   -4.992812|   -7.316663|    0.824072|    0.011997|
|         764|   -5.001219|   -7.316877|    0.824066|    0.011996|
|         765|   -5.009813|   -7.317185|    0.824060|    0.011995|
|         766|   -5.018542|   -7.317640|    0.824054|    0.011995|
|         767|   -5.027338|   -7.318300|    0.824048|    0.011994|
|         768|   -5.036139|   -7.319225|    0.824041|    0.011994|
|         769|   -5.044893|   -7.320476|    0.824035|    0.011993|
|         770|   -5.053564|   -7.322109|    0.824029|    0.011993|
|         771|   -5.062126|   -7.324171|    0.824023|    0.011993|
|         772|   -5.070559|   -7.326702|    0.824017|    0.011993|
|         773|   -5.078835|   -7.329725|    0.824012|    0.011993|
|         774|   -5.086922|   -7.333253|    0.824006|    0.011993|
|         775|   -5.094776|   -7.337279|    0.824001|    0.011993|
|         776|   -5.102347|   -7.341778|    0.823997|    0.011993|
|         777|   -5.109578|   -7.346725|    0.823992|    0.011993|
|         778|   -5.116413|   -7.352045|    0.823988|    0.011994|
|         779|   -5.122803|   -7.357657|    0.823985|    0.011994|
|         780|   -5.128704|   -7.363466|    0.823981|    0.011994|
|         781|   -5.134088|   -7.369359|    0.823979|    0.011995|
|         782|   -5.138934|   -7.375216|    0.823977|    0.011995|
|         783|   -5.143241|   -7.380913|    0.823975|    0.011996|
|         784|   -5.147014|   -7.386324|    0.823974|    0.011997|
|         785|   -5.150276|   -7.391336|    0.823973|    0.011998|
|         786|   -5.153057|   -7.395854|    0.823973|    0.011998|
|         787|   -5.155399|   -7.399808|    0.823973|    0.011999|
|         788|   -5.157350|   -7.403155|    0.823974|    0.012000|
|         789|   -5.158966|   -7.405888|    0.823975|    0.012001|
|         790|   -5.160303|   -7.408032|    0.823976|    0.012002|
|         791|   -5.161422|   -7.409641|    0.823978|    0.012003|
|         792|   -5.162379|   -7.410801|    0.823981|    0.012004|
|         793|   -5.163232|   -7.411606|    0.823984|    0.012005|
|         794|   -5.164032|   -7.412175|    0.823987|    0.012007|
|         795|   -5.164825|   -7.412630|    0.823990|    0.012008|
|         796|   -5.165651|   -7.413089|    0.823994|    0.012009|
|         797|   -5.166543|   -7.413661|    0.823998|    0.012010|
|         798|   -5.167528|   -7.414441|    0.824002|    0.012011|
|         799|   -5.168625|   -7.415511|    0.824007|    0.012012|
|         800|   -5.169847|   -7.416930|    0.824011|    0.012014|
|         801|   -5.171202|   -7.418729|    0.824016|    0.012014|
+-----------------------------------------------------------------------+
|Fixed CL Mode                           |Value                         |
+-----------------------------------------------------------------------+
|Current CL                              |0.824016                      |
|Target CL                               |0.824                         |
|Previous AOA                            |2.79614                       |
|Changed AoA by                          |-5.54841e-05                  |
+-----------------------------------------------------------------------+
+----------------------------------------------------------------+
|  Inner_Iter|    rms[Rho]|     rms[nu]|          CL|          CD|
+----------------------------------------------------------------+
|         802|   -4.441879|   -7.419634|    0.824021|    0.012015|
|         803|   -4.787777|   -7.422782|    0.824025|    0.012016|
|         804|   -4.952793|   -7.425842|    0.824030|    0.012018|
|         805|   -4.992294|   -7.429092|    0.824035|    0.012019|
|         806|   -5.019145|   -7.432488|    0.824040|    0.012020|
|         807|   -5.051777|   -7.435923|    0.824045|    0.012021|
|         808|   -5.086356|   -7.439275|    0.824050|    0.012022|
|         809|   -5.116468|   -7.442412|    0.824054|    0.012023|
|         810|   -5.139068|   -7.445201|    0.824059|    0.012024|
|         811|   -5.155062|   -7.447521|    0.824063|    0.012025|
|         812|   -5.166414|   -7.449263|    0.824067|    0.012026|
|         813|   -5.174355|   -7.450345|    0.824071|    0.012027|
|         814|   -5.179587|   -7.450715|    0.824075|    0.012028|
|         815|   -5.182885|   -7.450358|    0.824078|    0.012029|
|         816|   -5.185147|   -7.449292|    0.824082|    0.012030|
|         817|   -5.187100|   -7.447568|    0.824085|    0.012031|
|         818|   -5.189076|   -7.445270|    0.824087|    0.012032|
|         819|   -5.191055|   -7.442508|    0.824090|    0.012032|
|         820|   -5.192873|   -7.439407|    0.824092|    0.012033|
|         821|   -5.194408|   -7.436103|    0.824094|    0.012034|
|         822|   -5.195640|   -7.432734|    0.824095|    0.012034|
|         823|   -5.196604|   -7.429434|    0.824096|    0.012035|
|         824|   -5.197306|   -7.426329|    0.824097|    0.012035|
|         825|   -5.197692|   -7.423535|    0.824097|    0.012036|
|         826|   -5.197669|   -7.421153|    0.824098|    0.012036|
|         827|   -5.197162|   -7.419266|    0.824098|    0.012037|
|         828|   -5.196147|   -7.417943|    0.824097|    0.012037|
|         829|   -5.194665|   -7.417238|    0.824097|    0.012037|
|         830|   -5.192806|   -7.417187|    0.824096|    0.012037|
|         831|   -5.190689|   -7.417814|    0.824094|    0.012037|
|         832|   -5.188441|   -7.419126|    0.824093|    0.012037|
|         833|   -5.186179|   -7.421116|    0.824091|    0.012037|
|         834|   -5.183999|   -7.423764|    0.824089|    0.012037|
|         835|   -5.181970|   -7.427036|    0.824087|    0.012037|
|         836|   -5.180130|   -7.430886|    0.824085|    0.012037|
|         837|   -5.178490|   -7.435257|    0.824083|    0.012037|
|         838|   -5.177045|   -7.440080|    0.824080|    0.012037|
|         839|   -5.175779|   -7.445281|    0.824077|    0.012036|
|         840|   -5.174675|   -7.450776|    0.824075|    0.012036|
|         841|   -5.173721|   -7.456478|    0.824072|    0.012036|
|         842|   -5.172916|   -7.462299|    0.824069|    0.012035|
|         843|   -5.172270|   -7.468152|    0.824067|    0.012035|
|         844|   -5.171801|   -7.473951|    0.824064|    0.012034|
|         845|   -5.171538|   -7.479623|    0.824061|    0.012034|
|         846|   -5.171511|   -7.485100|    0.824058|    0.012034|
|         847|   -5.171749|   -7.490331|    0.824056|    0.012033|
|         848|   -5.172274|   -7.495278|    0.824053|    0.012032|
|         849|   -5.173103|   -7.499918|    0.824051|    0.012032|
|         850|   -5.174238|   -7.504245|    0.824049|    0.012031|
|         851|   -5.175676|   -7.508267|    0.824047|    0.012031|
|         852|   -5.177409|   -7.512003|    0.824045|    0.012030|
|         853|   -5.179422|   -7.515483|    0.824043|    0.012030|
|         854|   -5.181701|   -7.518741|    0.824041|    0.012029|
|         855|   -5.184230|   -7.521814|    0.824040|    0.012029|
|         856|   -5.186997|   -7.524737|    0.824038|    0.012028|
|         857|   -5.189987|   -7.527540|    0.824037|    0.012028|
|         858|   -5.193190|   -7.530249|    0.824036|    0.012027|
|         859|   -5.196590|   -7.532878|    0.824035|    0.012027|
|         860|   -5.200173|   -7.535433|    0.824034|    0.012026|
|         861|   -5.203920|   -7.537907|    0.824034|    0.012026|
|         862|   -5.207809|   -7.540287|    0.824033|    0.012025|
|         863|   -5.211814|   -7.542549|    0.824033|    0.012025|
|         864|   -5.215906|   -7.544666|    0.824033|    0.012024|
|         865|   -5.220052|   -7.546604|    0.824033|    0.012024|
|         866|   -5.224216|   -7.548330|    0.824033|    0.012023|
|         867|   -5.228359|   -7.549814|    0.824033|    0.012023|
|         868|   -5.232441|   -7.551032|    0.824033|    0.012023|
|         869|   -5.236419|   -7.551967|    0.824033|    0.012022|
|         870|   -5.240250|   -7.552613|    0.824033|    0.012022|
|         871|   -5.243890|   -7.552975|    0.824034|    0.012022|
|         872|   -5.247294|   -7.553072|    0.824034|    0.012021|
|         873|   -5.250418|   -7.552933|    0.824034|    0.012021|
|         874|   -5.253222|   -7.552597|    0.824035|    0.012021|
|         875|   -5.255666|   -7.552111|    0.824035|    0.012021|
|         876|   -5.257717|   -7.551527|    0.824036|    0.012021|
|         877|   -5.259346|   -7.550901|    0.824036|    0.012021|
|         878|   -5.260530|   -7.550287|    0.824037|    0.012020|
|         879|   -5.261254|   -7.549737|    0.824038|    0.012020|
|         880|   -5.261511|   -7.549295|    0.824038|    0.012020|
|         881|   -5.261302|   -7.548998|    0.824039|    0.012020|
|         882|   -5.260637|   -7.548875|    0.824039|    0.012020|
|         883|   -5.259535|   -7.548945|    0.824040|    0.012020|
|         884|   -5.258020|   -7.549216|    0.824041|    0.012020|
|         885|   -5.256125|   -7.549685|    0.824041|    0.012020|
|         886|   -5.253888|   -7.550338|    0.824042|    0.012020|
|         887|   -5.251354|   -7.551154|    0.824043|    0.012020|
|         888|   -5.248567|   -7.552103|    0.824044|    0.012020|
|         889|   -5.245578|   -7.553147|    0.824044|    0.012020|
|         890|   -5.242437|   -7.554246|    0.824045|    0.012021|
|         891|   -5.239194|   -7.555358|    0.824046|    0.012021|
|         892|   -5.235900|   -7.556438|    0.824047|    0.012021|
|         893|   -5.232602|   -7.557447|    0.824048|    0.012021|
|         894|   -5.229347|   -7.558350|    0.824049|    0.012021|
|         895|   -5.226180|   -7.559115|    0.824050|    0.012021|
|         896|   -5.223141|   -7.559722|    0.824051|    0.012022|
|         897|   -5.220269|   -7.560154|    0.824052|    0.012022|
|         898|   -5.217599|   -7.560408|    0.824053|    0.012022|
|         899|   -5.215162|   -7.560484|    0.824054|    0.012023|
|         900|   -5.212986|   -7.560392|    0.824055|    0.012023|
|         901|   -5.211099|   -7.560149|    0.824057|    0.012019|
+-----------------------------------------------------------------------+
|Fixed CL Mode                           |Value                         |
+-----------------------------------------------------------------------+
|Current CL                              |0.824057                      |
|Target CL                               |0.824                         |
|Previous AOA                            |2.79609                       |
[...]
|        5298|   -6.040478|   -7.988189|    0.824238|    0.012030|
|        5299|   -6.047218|   -7.992676|    0.824238|    0.012030|
|        5300|   -6.053566|   -7.997199|    0.824238|    0.012029|
|        5301|   -6.059482|   -8.001778|    0.824238|    0.012029|
|        5302|   -6.064937|   -8.006429|    0.824238|    0.012029|
|        5303|   -6.069915|   -8.011162|    0.824238|    0.012029|
|        5304|   -6.074409|   -8.015990|    0.824238|    0.012029|
|        5305|   -6.078428|   -8.020918|    0.824238|    0.012029|
|        5306|   -6.081990|   -8.025952|    0.824238|    0.012029|
|        5307|   -6.085124|   -8.031097|    0.824238|    0.012029|
|        5308|   -6.087869|   -8.036354|    0.824239|    0.012029|
|        5309|   -6.090272|   -8.041726|    0.824239|    0.012029|
|        5310|   -6.092383|   -8.047216|    0.824239|    0.012029|
|        5311|   -6.094260|   -8.052827|    0.824239|    0.012029|
|        5312|   -6.095958|   -8.058562|    0.824239|    0.012029|
|        5313|   -6.097537|   -8.064427|    0.824239|    0.012029|
|        5314|   -6.099053|   -8.070428|    0.824239|    0.012029|
|        5315|   -6.100558|   -8.076572|    0.824239|    0.012029|
|        5316|   -6.102102|   -8.082866|    0.824239|    0.012029|
|        5317|   -6.103730|   -8.089321|    0.824239|    0.012029|
|        5318|   -6.105481|   -8.095944|    0.824240|    0.012029|
|        5319|   -6.107388|   -8.102747|    0.824240|    0.012029|
|        5320|   -6.109477|   -8.109738|    0.824240|    0.012029|
|        5321|   -6.111770|   -8.116925|    0.824240|    0.012030|
|        5322|   -6.114278|   -8.124317|    0.824240|    0.012030|
|        5323|   -6.117009|   -8.131919|    0.824240|    0.012030|
|        5324|   -6.119962|   -8.139736|    0.824240|    0.012030|
|        5325|   -6.123130|   -8.147769|    0.824241|    0.012030|
|        5326|   -6.126501|   -8.156018|    0.824241|    0.012030|
|        5327|   -6.130055|   -8.164482|    0.824241|    0.012030|
|        5328|   -6.133767|   -8.173153|    0.824241|    0.012030|
|        5329|   -6.137608|   -8.182026|    0.824241|    0.012030|
|        5330|   -6.141544|   -8.191090|    0.824241|    0.012030|
|        5331|   -6.145536|   -8.200331|    0.824241|    0.012030|
|        5332|   -6.149545|   -8.209736|    0.824241|    0.012030|
|        5333|   -6.153530|   -8.219288|    0.824242|    0.012030|
|        5334|   -6.157447|   -8.228969|    0.824242|    0.012031|
|        5335|   -6.161258|   -8.238758|    0.824242|    0.012031|
|        5336|   -6.164924|   -8.248637|    0.824242|    0.012031|
|        5337|   -6.168410|   -8.258583|    0.824242|    0.012031|
|        5338|   -6.171689|   -8.268578|    0.824242|    0.012031|
|        5339|   -6.174735|   -8.278599|    0.824242|    0.012031|
|        5340|   -6.177534|   -8.288629|    0.824242|    0.012031|
|        5341|   -6.180080|   -8.298650|    0.824242|    0.012031|
|        5342|   -6.182374|   -8.308646|    0.824242|    0.012031|
|        5343|   -6.184426|   -8.318602|    0.824243|    0.012031|
|        5344|   -6.186252|   -8.328506|    0.824243|    0.012031|
|        5345|   -6.187877|   -8.338346|    0.824243|    0.012031|
|        5346|   -6.189331|   -8.348112|    0.824243|    0.012031|
|        5347|   -6.190649|   -8.357795|    0.824243|    0.012032|
|        5348|   -6.191871|   -8.367390|    0.824243|    0.012032|
|        5349|   -6.193038|   -8.376888|    0.824243|    0.012032|
|        5350|   -6.194194|   -8.386287|    0.824243|    0.012032|
|        5351|   -6.195383|   -8.395582|    0.824243|    0.012032|
|        5352|   -6.196645|   -8.404769|    0.824243|    0.012032|
|        5353|   -6.198022|   -8.413845|    0.824243|    0.012032|
|        5354|   -6.199552|   -8.422807|    0.824243|    0.012032|
|        5355|   -6.201268|   -8.431648|    0.824243|    0.012032|
|        5356|   -6.203202|   -8.440365|    0.824243|    0.012032|
|        5357|   -6.205380|   -8.448950|    0.824243|    0.012032|
|        5358|   -6.207824|   -8.457396|    0.824243|    0.012032|
|        5359|   -6.210552|   -8.465694|    0.824243|    0.012032|
|        5360|   -6.213577|   -8.473832|    0.824243|    0.012032|
|        5361|   -6.216905|   -8.481799|    0.824243|    0.012032|
|        5362|   -6.220540|   -8.489582|    0.824243|    0.012032|
|        5363|   -6.224480|   -8.497166|    0.824243|    0.012032|
|        5364|   -6.228716|   -8.504538|    0.824243|    0.012032|
|        5365|   -6.233238|   -8.511683|    0.824243|    0.012032|
|        5366|   -6.238027|   -8.518589|    0.824243|    0.012032|
|        5367|   -6.243063|   -8.525250|    0.824242|    0.012032|
|        5368|   -6.248317|   -8.531659|    0.824242|    0.012032|
|        5369|   -6.253759|   -8.537801|    0.824242|    0.012032|
|        5370|   -6.259353|   -8.543658|    0.824242|    0.012032|
|        5371|   -6.265059|   -8.549211|    0.824242|    0.012032|
|        5372|   -6.270834|   -8.554443|    0.824242|    0.012032|
|        5373|   -6.276634|   -8.559344|    0.824242|    0.012031|
|        5374|   -6.282412|   -8.563909|    0.824242|    0.012031|
|        5375|   -6.288119|   -8.568145|    0.824242|    0.012031|
|        5376|   -6.293707|   -8.572063|    0.824242|    0.012031|
|        5377|   -6.299129|   -8.575682|    0.824242|    0.012031|
|        5378|   -6.304340|   -8.579027|    0.824242|    0.012031|
|        5379|   -6.309299|   -8.582123|    0.824242|    0.012031|
|        5380|   -6.313967|   -8.585003|    0.824241|    0.012031|
|        5381|   -6.318314|   -8.587696|    0.824241|    0.012031|
|        5382|   -6.322315|   -8.590237|    0.824241|    0.012031|
|        5383|   -6.325949|   -8.592657|    0.824241|    0.012031|
|        5384|   -6.329209|   -8.594994|    0.824241|    0.012031|
|        5385|   -6.332087|   -8.597276|    0.824241|    0.012030|
|        5386|   -6.334586|   -8.599523|    0.824241|    0.012030|
|        5387|   -6.336716|   -8.601750|    0.824241|    0.012030|
|        5388|   -6.338492|   -8.603970|    0.824241|    0.012030|
|        5389|   -6.339935|   -8.606193|    0.824241|    0.012030|
|        5390|   -6.341067|   -8.608425|    0.824241|    0.012030|
|        5391|   -6.341916|   -8.610673|    0.824241|    0.012030|
|        5392|   -6.342510|   -8.612942|    0.824241|    0.012030|
|        5393|   -6.342876|   -8.615232|    0.824241|    0.012030|
|        5394|   -6.343042|   -8.617543|    0.824241|    0.012030|
|        5395|   -6.343035|   -8.619867|    0.824241|    0.012029|
|        5396|   -6.342880|   -8.622197|    0.824242|    0.012029|
|        5397|   -6.342600|   -8.624520|    0.824242|    0.012029|
|        5398|   -6.342213|   -8.626820|    0.824242|    0.012029|
|        5399|   -6.341738|   -8.629079|    0.824242|    0.012029|
|        5400|   -6.341189|   -8.631279|    0.824242|    0.012029|
|        5401|   -6.340579|   -8.633400|    0.824242|    0.012029|
|        5402|   -6.339917|   -8.635424|    0.824242|    0.012029|
|        5403|   -6.339211|   -8.637333|    0.824242|    0.012029|
|        5404|   -6.338468|   -8.639117|    0.824242|    0.012029|
|        5405|   -6.337692|   -8.640770|    0.824242|    0.012028|
|        5406|   -6.336886|   -8.642282|    0.824242|    0.012028|
|        5407|   -6.336052|   -8.643642|    0.824243|    0.012028|
|        5408|   -6.335191|   -8.644840|    0.824243|    0.012028|
|        5409|   -6.334307|   -8.645870|    0.824243|    0.012028|
|        5410|   -6.333401|   -8.646732|    0.824243|    0.012028|
|        5411|   -6.332475|   -8.647428|    0.824243|    0.012028|
|        5412|   -6.331531|   -8.647967|    0.824243|    0.012028|
|        5413|   -6.330571|   -8.648358|    0.824243|    0.012028|
|        5414|   -6.329599|   -8.648612|    0.824243|    0.012028|
|        5415|   -6.328619|   -8.648740|    0.824243|    0.012028|
|        5416|   -6.327635|   -8.648754|    0.824244|    0.012028|
|        5417|   -6.326652|   -8.648667|    0.824244|    0.012028|
|        5418|   -6.325676|   -8.648487|    0.824244|    0.012028|
|        5419|   -6.324713|   -8.648225|    0.824244|    0.012027|
|        5420|   -6.323772|   -8.647890|    0.824244|    0.012027|
|        5421|   -6.322860|   -8.647486|    0.824244|    0.012027|
|        5422|   -6.321985|   -8.647019|    0.824244|    0.012027|
|        5423|   -6.321159|   -8.646494|    0.824244|    0.012027|
|        5424|   -6.320392|   -8.645911|    0.824244|    0.012027|
|        5425|   -6.319694|   -8.645272|    0.824244|    0.012027|
|        5426|   -6.319078|   -8.644578|    0.824244|    0.012027|
|        5427|   -6.318557|   -8.643829|    0.824244|    0.012027|
|        5428|   -6.318143|   -8.643025|    0.824244|    0.012027|
|        5429|   -6.317851|   -8.642168|    0.824244|    0.012027|
|        5430|   -6.317694|   -8.641259|    0.824244|    0.012027|
|        5431|   -6.317688|   -8.640301|    0.824244|    0.012027|
|        5432|   -6.317845|   -8.639298|    0.824244|    0.012027|
|        5433|   -6.318181|   -8.638257|    0.824244|    0.012027|
|        5434|   -6.318709|   -8.637184|    0.824244|    0.012027|
|        5435|   -6.319444|   -8.636089|    0.824244|    0.012027|
|        5436|   -6.320396|   -8.634982|    0.824244|    0.012027|
|        5437|   -6.321580|   -8.633876|    0.824244|    0.012027|
|        5438|   -6.323005|   -8.632783|    0.824244|    0.012027|
|        5439|   -6.324681|   -8.631717|    0.824244|    0.012027|
|        5440|   -6.326615|   -8.630693|    0.824244|    0.012028|
|        5441|   -6.328815|   -8.629725|    0.824244|    0.012028|
|        5442|   -6.331283|   -8.628828|    0.824244|    0.012028|
|        5443|   -6.334021|   -8.628015|    0.824244|    0.012028|
|        5444|   -6.337030|   -8.627299|    0.824244|    0.012028|
|        5445|   -6.340304|   -8.626693|    0.824244|    0.012028|
|        5446|   -6.343838|   -8.626205|    0.824244|    0.012028|
|        5447|   -6.347621|   -8.625845|    0.824243|    0.012028|
|        5448|   -6.351641|   -8.625620|    0.824243|    0.012028|
|        5449|   -6.355881|   -8.625535|    0.824243|    0.012028|
|        5450|   -6.360321|   -8.625593|    0.824243|    0.012028|
|        5451|   -6.364937|   -8.625794|    0.824243|    0.012028|
|        5452|   -6.369701|   -8.626140|    0.824243|    0.012028|
|        5453|   -6.374582|   -8.626627|    0.824243|    0.012028|
|        5454|   -6.379546|   -8.627252|    0.824243|    0.012028|
|        5455|   -6.384555|   -8.628010|    0.824242|    0.012028|
|        5456|   -6.389567|   -8.628893|    0.824242|    0.012029|
|        5457|   -6.394539|   -8.629896|    0.824242|    0.012029|
|        5458|   -6.399427|   -8.631008|    0.824242|    0.012029|
|        5459|   -6.404185|   -8.632222|    0.824242|    0.012029|
|        5460|   -6.408766|   -8.633526|    0.824242|    0.012029|
|        5461|   -6.413125|   -8.634912|    0.824241|    0.012029|
|        5462|   -6.417219|   -8.636369|    0.824241|    0.012029|
|        5463|   -6.421007|   -8.637886|    0.824241|    0.012029|
|        5464|   -6.424455|   -8.639454|    0.824241|    0.012029|
|        5465|   -6.427531|   -8.641063|    0.824241|    0.012029|
|        5466|   -6.430210|   -8.642703|    0.824240|    0.012029|
|        5467|   -6.432477|   -8.644365|    0.824240|    0.012029|
|        5468|   -6.434319|   -8.646039|    0.824240|    0.012029|
|        5469|   -6.435737|   -8.647719|    0.824240|    0.012029|
|        5470|   -6.436734|   -8.649396|    0.824239|    0.012029|
|        5471|   -6.437325|   -8.651061|    0.824239|    0.012030|
|        5472|   -6.437529|   -8.652710|    0.824239|    0.012030|
|        5473|   -6.437372|   -8.654334|    0.824239|    0.012030|
|        5474|   -6.436885|   -8.655929|    0.824238|    0.012030|
|        5475|   -6.436105|   -8.657488|    0.824238|    0.012030|
|        5476|   -6.435070|   -8.659008|    0.824238|    0.012030|
|        5477|   -6.433820|   -8.660483|    0.824238|    0.012030|
|        5478|   -6.432398|   -8.661910|    0.824237|    0.012030|
|        5479|   -6.430845|   -8.663286|    0.824237|    0.012030|
|        5480|   -6.429203|   -8.664609|    0.824237|    0.012030|
|        5481|   -6.427511|   -8.665876|    0.824237|    0.012030|
|        5482|   -6.425808|   -8.667087|    0.824236|    0.012030|
|        5483|   -6.424130|   -8.668241|    0.824236|    0.012030|
|        5484|   -6.422510|   -8.669340|    0.824236|    0.012030|
|        5485|   -6.420977|   -8.670383|    0.824236|    0.012030|
|        5486|   -6.419561|   -8.671375|    0.824235|    0.012030|
|        5487|   -6.418285|   -8.672318|    0.824235|    0.012030|
|        5488|   -6.417171|   -8.673216|    0.824235|    0.012030|
|        5489|   -6.416238|   -8.674075|    0.824235|    0.012030|
|        5490|   -6.415502|   -8.674901|    0.824234|    0.012030|
|        5491|   -6.414977|   -8.675700|    0.824234|    0.012030|
|        5492|   -6.414674|   -8.676480|    0.824234|    0.012030|
|        5493|   -6.414601|   -8.677249|    0.824234|    0.012030|
|        5494|   -6.414766|   -8.678017|    0.824234|    0.012030|
|        5495|   -6.415173|   -8.678792|    0.824233|    0.012030|
|        5496|   -6.415825|   -8.679584|    0.824233|    0.012030|
|        5497|   -6.416723|   -8.680403|    0.824233|    0.012030|
|        5498|   -6.417867|   -8.681257|    0.824233|    0.012030|
|        5499|   -6.419256|   -8.682158|    0.824233|    0.012015|
+-----------------------------------------------------------------------+
|Fixed CL Mode (Finite Difference)       |Value                         |
+-----------------------------------------------------------------------+
|Delta CL / Delta AoA                    |0.232905                      |
|Delta CD / Delta CL                     |0.0174879                     |
|Delta CMz / Delta CL                    |-0.00676624                   |
+-----------------------------------------------------------------------+
Writing Flow Meta-Data file: flow.meta

----------------------------- Solver Exit -------------------------------

Maximum number of iterations reached (ITER = 5500) before convergence.
+-----------------------------------------------------------------------+
|      Convergence Field     |     Value    |   Criterion  |  Converged |
+-----------------------------------------------------------------------+
|                    rms[Rho]|      -6.41926|         < -12|          No|
+-----------------------------------------------------------------------+
-------------------------------------------------------------------------

--------------------------- Finalizing Solver ---------------------------
Deleted CNumerics container.
Deleted CIntegration container.
Deleted CSolver container.
Deleted CIteration container.
Deleted CInterface container.
Deleted CGeometry container.
Deleted CFreeFormDefBox class.
Deleted CSurfaceMovement class.
Deleted CVolumetricMovement class.
Deleted CConfig container.
Deleted nInst container.
Deleted COutput class.
-------------------------------------------------------------------------

------------------------- Exit Success (SU2_CFD) ------------------------


-------------------------------------------------------------------------
|    ___ _   _ ___                                                      |
|   / __| | | |_  )   Release 8.0.0 "Harrier"                           |
|   \__ \ |_| |/ /                                                      |
|   |___/\___//___|   Suite (Solution Exporting Code)                   |
|                                                                       |
-------------------------------------------------------------------------
| SU2 Project Website: https://su2code.github.io                        |
|                                                                       |
| The SU2 Project is maintained by the SU2 Foundation                   |
| (http://su2foundation.org)                                            |
-------------------------------------------------------------------------
| Copyright 2012-2023, SU2 Contributors                                 |
|                                                                       |
| SU2 is free software; you can redistribute it and/or                  |
| modify it under the terms of the GNU Lesser General Public            |
| License as published by the Free Software Foundation; either          |
| version 2.1 of the License, or (at your option) any later version.    |
|                                                                       |
| SU2 is distributed in the hope that it will be useful,                |
| but WITHOUT ANY WARRANTY; without even the implied warranty of        |
| MERCHANTABILITY or FITNESS FOR A PARTICULAR PURPOSE. See the GNU      |
| Lesser General Public License for more details.                       |
|                                                                       |
| You should have received a copy of the GNU Lesser General Public      |
| License along with SU2. If not, see <http://www.gnu.org/licenses/>.   |
-------------------------------------------------------------------------

----------------- Physical Case Definition ( Zone 0 ) -------------------
Input mesh file name: mesh_RAE2822_turb_deform.su2

-------------------- Output Information ( Zone 0 ) ----------------------
The tabular file format is CSV (.csv).
Flow variables file name: flow.

------------- Config File Boundary Information ( Zone 0 ) ---------------
+-----------------------------------------------------------------------+
|                        Marker Type|                        Marker Name|
+-----------------------------------------------------------------------+
|                          Far-field|                           FARFIELD|
+-----------------------------------------------------------------------+
|                     Heat flux wall|                            AIRFOIL|
+-----------------------------------------------------------------------+
Two dimensional problem.
13937 grid points before partitioning.
22842 volume elements before partitioning.
2 surface markers.
192 boundary elements in index 0 (Marker = AIRFOIL).
40 boundary elements in index 1 (Marker = FARFIELD).
Executing the partitioning functions.
Building the graph adjacency structure.
Calling ParMETIS... graph partitioning complete (831 edge cuts).
Distributing ParMETIS coloring.
Rebalancing vertices.
Rebalancing volume element connectivity.
Rebalancing markers and surface elements.
14875 vertices including ghost points. 
23674 interior elements including halo cells. 
18780 triangles.
4894 quadrilaterals.
Establishing MPI communication patterns.
Identify vertices.
Storing a mapping from global to local point index.

------------------------- Solution Postprocessing -----------------------
Reading and storing the solution from restart_flow.
Volume output fields: COORDINATES, SOLUTION
  Info: Ignoring the following screen output fields:
  RMS_DENSITY, RMS_NU_TILDE, LIFT, DRAG
Screen output fields: INNER_ITER
  Info: Ignoring the following history output groups:
  RMS_RES, AERO_COEFF
History output group(s): ITER
Warning: No (valid) fields chosen for convergence monitoring. Convergence monitoring inactive.
Warning: No (valid) fields chosen for time convergence monitoring. Time convergence monitoring inactive.
|Paraview                           |flow.vtu                           |
|Paraview surface                   |surface_flow.vtu                   |
|CSV file                           |surface_flow.csv                   |

------------------------- Finalize Solver -------------------------
Deleted CGeometry container.
Deleted CSolver class.
Deleted CConfig container.
Deleted COutput class.

Completed in 0.017824 seconds on 6 cores.

------------------------- Exit Success (SU2_SOL) ------------------------

