
-------------------------------------------------------------------------
|    ___ _   _ ___                                                      |
|   / __| | | |_  )   Release 8.0.0 "Harrier"                           |
|   \__ \ |_| |/ /                                                      |
|   |___/\___//___|   Suite (Computational Fluid Dynamics Code)         |
|                                                                       |
-------------------------------------------------------------------------
| SU2 Project Website: https://su2code.github.io                        |
|                                                                       |
| The SU2 Project is maintained by the SU2 Foundation                   |
| (http://su2foundation.org)                                            |
-------------------------------------------------------------------------
| Copyright 2012-2023, SU2 Contributors                                 |
|                                                                       |
| SU2 is free software; you can redistribute it and/or                  |
| modify it under the terms of the GNU Lesser General Public            |
| License as published by the Free Software Foundation; either          |
| version 2.1 of the License, or (at your option) any later version.    |
|                                                                       |
| SU2 is distributed in the hope that it will be useful,                |
| but WITHOUT ANY WARRANTY; without even the implied warranty of        |
| MERCHANTABILITY or FITNESS FOR A PARTICULAR PURPOSE. See the GNU      |
| Lesser General Public License for more details.                       |
|                                                                       |
| You should have received a copy of the GNU Lesser General Public      |
| License along with SU2. If not, see <http://www.gnu.org/licenses/>.   |
-------------------------------------------------------------------------

Parsing config file for zone 0

----------------- Physical Case Definition ( Zone 0 ) -------------------
Compressible RANS equations.
Turbulence model: Spalart-Allmaras-noft2
Hybrid RANS/LES: No Hybrid RANS/LES
Mach number: 0.734.
Angle of attack (AoA): 2.31 deg, and angle of sideslip (AoS): 0 deg.
Reynolds number: 6.5e+06. Reference length 1.
Fixed CL mode, target value: 0.824.
Reading and writing binary SU2 native restart files.
Read flow solution from: solution_flow.dat.
Dimensional simulation.
The reference area is 1 m^2.
The semi-span will be computed using the max y(3D) value.
The reference length is 1 m.
Reference origin for moment evaluation is (0.25, 0, 0).
Surface(s) where the force coefficients are evaluated: AIRFOIL.

Surface(s) plotted in the output file: AIRFOIL.
Surface(s) affected by the design variables: AIRFOIL.
Input mesh file name: mesh_RAE2822_turb_deform.su2

--------------- Space Numerical Integration ( Zone 0 ) ------------------
Jameson-Schmidt-Turkel scheme (2nd order in space) for the flow inviscid terms.
JST viscous coefficients (2nd & 4th): 0.5, 0.02.
The method includes a grid stretching correction (p = 0.3).
Scalar upwind solver for the turbulence model.
First order integration in space.
Average of gradients with correction (viscous flow terms).
Average of gradients with correction (viscous turbulence terms).
Gradient for viscous and source terms: inverse-distance weighted Least-Squares.

--------------- Time Numerical Integration  ( Zone 0 ) ------------------
Local time stepping (steady state simulation).
Euler implicit method for the flow equations.
FGMRES is used for solving the linear system.
Using a ILU(0) preconditioning.
Convergence criteria of the linear solver: 1e-06.
Max number of linear iterations: 10.
No CFL adaptation.
Courant-Friedrichs-Lewy number:       10
Euler implicit time integration for the turbulence model.

------------------ Convergence Criteria  ( Zone 0 ) ---------------------
Maximum number of solver subiterations: 5500.
Begin convergence monitoring at iteration 10.
Residual minimum value: 1e-12.
Cauchy series min. value: 1e-06.
Number of Cauchy elements: 100.
Begin windowed time average at iteration 0.

-------------------- Output Information ( Zone 0 ) ----------------------
File writing frequency: 
+------------------------------------+
|                     File| Frequency|
+------------------------------------+
|                  RESTART|     10000|
|                 PARAVIEW|     10000|
|         SURFACE_PARAVIEW|     10000|
|              SURFACE_CSV|     10000|
+------------------------------------+
Writing the convergence history file every 1 inner iterations.
Writing the screen convergence history every 1 inner iterations.
The tabular file format is CSV (.csv).
Convergence history file name: history_direct.
Forces breakdown file name: forces_breakdown.dat.
Surface file name: surface_flow.
Volume file name: flow.
Restart file name: restart_flow.dat.

------------- Config File Boundary Information ( Zone 0 ) ---------------
+-----------------------------------------------------------------------+
|                        Marker Type|                        Marker Name|
+-----------------------------------------------------------------------+
|                          Far-field|                           FARFIELD|
+-----------------------------------------------------------------------+
|                     Heat flux wall|                            AIRFOIL|
+-----------------------------------------------------------------------+

-------------------- Output Preprocessing ( Zone 0 ) --------------------

WARNING: SURFACE_PRESSURE_DROP can only be computed for at least 2 surfaces (outlet, inlet, ...)

Screen output fields: INNER_ITER, RMS_DENSITY, RMS_NU_TILDE, LIFT, DRAG
History output group(s): ITER, RMS_RES, AERO_COEFF
Convergence field(s): RMS_DENSITY
Warning: No (valid) fields chosen for time convergence monitoring. Time convergence monitoring inactive.
Volume output fields: COORDINATES, SOLUTION, PRIMITIVE

------------------- Geometry Preprocessing ( Zone 0 ) -------------------
Two dimensional problem.
13937 grid points before partitioning.
22842 volume elements before partitioning.
2 surface markers.
192 boundary elements in index 0 (Marker = AIRFOIL).
40 boundary elements in index 1 (Marker = FARFIELD).
Executing the partitioning functions.
Building the graph adjacency structure.
Calling ParMETIS... graph partitioning complete (831 edge cuts).
Distributing ParMETIS coloring.
Rebalancing vertices.
Rebalancing volume element connectivity.
Rebalancing markers and surface elements.
14875 vertices including ghost points. 
23674 interior elements including halo cells. 
18780 triangles.
4894 quadrilaterals.
Establishing MPI communication patterns.
Setting point connectivity.
Renumbering points (Reverse Cuthill McKee Ordering).
Recomputing point connectivity.
Setting element connectivity.
Checking the numerical grid orientation.
All volume elements are correctly orientend.
All surface elements are correctly orientend.
Identifying edges and vertices.
Setting the control volume structure.
Area of the computational grid: 32209.9.
Searching for the closest normal neighbors to the surfaces.
Storing a mapping from global to local point index.
Compute the surface curvature.
Max K: 187.534. Mean K: 8.06308. Standard deviation K: 25.3265.
Checking for periodicity.
Computing mesh quality statistics for the dual control volumes.
+--------------------------------------------------------------+
|           Mesh Quality Metric|        Minimum|        Maximum|
+--------------------------------------------------------------+
|    Orthogonality Angle (deg.)|        74.8917|        89.9999|
|     CV Face Area Aspect Ratio|        1.00519|        3358.34|
|           CV Sub-Volume Ratio|        1.00047|        1217.82|
+--------------------------------------------------------------+
Finding max control volume width.
Communicating number of neighbors.
Wetted area = 2.02148 m.
Area projection in the x-plane = 0.126112 m, y-plane = 0.995873 m.
Max. coordinate in the x-direction = 1 m, y-direction = 0.0620102 m.
Min. coordinate in the x-direction = 0 m, y-direction = -0.0607396 m.
Computing wall distances.

-------------------- Solver Preprocessing ( Zone 0 ) --------------------
WARNING: AoA in the solution file (2.7811 deg.) +
         AoA offset in mesh file (0 deg.) = 2.7811 deg.
WARNING: SU2 will use the dCD/dCL provided in the direct solution file: 0.0186897.
WARNING: SU2 will use the dCMz/dCL provided in the direct solution file: 0.0131674.
Viscous flow: Computing pressure using the ideal gas law
based on the free-stream temperature and a density computed
from the Reynolds number.
Force coefficients computed using free-stream values.

-- Models:
+------------------------------------------------------------------------------+
|          Viscosity Model|        Conductivity Model|              Fluid Model|
+------------------------------------------------------------------------------+
|               SUTHERLAND|          CONSTANT_PRANDTL|             STANDARD_AIR|
+------------------------------------------------------------------------------+
-- Fluid properties:
+------------------------------------------------------------------------------+
|                  Name|    Dim. value|    Ref. value|      Unit|Non-dim. value|
+------------------------------------------------------------------------------+
|        Ref. Viscosity|     1.716e-05|             1|   N.s/m^2|     1.716e-05|
|      Sutherland Temp.|        273.15|             1|         K|        273.15|
|     Sutherland Const.|         110.4|             1|         K|         110.4|
+------------------------------------------------------------------------------+
|        Prandtl (Lam.)|             -|             -|         -|          0.71|
|       Prandtl (Turb.)|             -|             -|         -|           0.9|
+------------------------------------------------------------------------------+
|          Gas Constant|       287.058|             1|  N.m/kg.K|       287.058|
|      Spec. Heat Ratio|             -|             -|         -|           1.4|
+------------------------------------------------------------------------------+
-- Initial and free-stream conditions:
+------------------------------------------------------------------------------+
|                  Name|    Dim. value|    Ref. value|      Unit|Non-dim. value|
+------------------------------------------------------------------------------+
|       Static Pressure|         38515|             1|        Pa|         38515|
|               Density|      0.465631|             1|    kg/m^3|      0.465631|
|           Temperature|        288.15|             1|         K|        288.15|
|          Total Energy|        237984|             1|   m^2/s^2|        237984|
|            Velocity-X|       249.484|             1|       m/s|       249.484|
|            Velocity-Y|       12.1193|             1|       m/s|       12.1193|
|    Velocity Magnitude|       249.778|             1|       m/s|       249.778|
+------------------------------------------------------------------------------+
|             Viscosity|    1.7893e-05|             1|   N.s/m^2|    1.7893e-05|
|          Conductivity|             -|             1|   W/m^2.K|             -|
|     Turb. Kin. Energy|       233.959|             1|   m^2/s^2|       233.959|
|     Spec. Dissipation|        608834|             1|       1/s|        608834|
+------------------------------------------------------------------------------+
|           Mach Number|             -|             -|         -|         0.734|
|       Reynolds Number|             -|             -|         -|       6.5e+06|
+------------------------------------------------------------------------------+
Initialize Jacobian structure (Navier-Stokes). MG level: 0.
Initialize Jacobian structure (SA model).

------------------- Numerics Preprocessing ( Zone 0 ) -------------------

----------------- Integration Preprocessing ( Zone 0 ) ------------------

------------------- Iteration Preprocessing ( Zone 0 ) ------------------
Euler/Navier-Stokes/RANS fluid iteration.

------------------------------ Begin Solver -----------------------------

Simulation Run using the Single-zone Driver
WARNING: SU2 was not compiled for an AVX-capable architecture. Performance could be better,
         see https://su2code.github.io/docs_v7/Build-SU2-Linux-MacOS/#compiler-optimizations
+----------------------------------------------------------------+
|  Inner_Iter|    rms[Rho]|     rms[nu]|          CL|          CD|
+----------------------------------------------------------------+
|           0|   -5.465315|   -6.818715|    0.824026|    0.012002|
|           1|   -5.521822|   -6.921556|    0.824040|    0.012006|
|           2|   -5.581722|   -7.044711|    0.824045|    0.012008|
|           3|   -5.627074|   -7.185835|    0.824044|    0.012010|
|           4|   -5.658468|   -7.336035|    0.824041|    0.012010|
|           5|   -5.678689|   -7.460553|    0.824038|    0.012010|
|           6|   -5.689513|   -7.506473|    0.824037|    0.012009|
|           7|   -5.692473|   -7.484802|    0.824037|    0.012009|
|           8|   -5.689177|   -7.446700|    0.824038|    0.012010|
|           9|   -5.681126|   -7.413901|    0.824040|    0.012010|
|          10|   -5.669732|   -7.388403|    0.824043|    0.012011|
|          11|   -5.656503|   -7.368714|    0.824045|    0.012013|
|          12|   -5.642989|   -7.354703|    0.824048|    0.012014|
|          13|   -5.630469|   -7.347476|    0.824051|    0.012016|
|          14|   -5.619674|   -7.348137|    0.824053|    0.012018|
|          15|   -5.610737|   -7.356880|    0.824055|    0.012020|
|          16|   -5.603369|   -7.372540|    0.824056|    0.012022|
|          17|   -5.597130|   -7.392365|    0.824056|    0.012024|
|          18|   -5.591686|   -7.412073|    0.824056|    0.012026|
|          19|   -5.586946|   -7.426637|    0.824054|    0.012028|
|          20|   -5.583046|   -7.432089|    0.824052|    0.012030|
|          21|   -5.580226|   -7.427445|    0.824049|    0.012031|
|          22|   -5.578679|   -7.414929|    0.824045|    0.012033|
|          23|   -5.578452|   -7.398251|    0.824042|    0.012034|
|          24|   -5.579411|   -7.380690|    0.824037|    0.012035|
|          25|   -5.581269|   -7.364235|    0.824033|    0.012036|
|          26|   -5.583658|   -7.349676|    0.824029|    0.012036|
|          27|   -5.586198|   -7.337053|    0.824024|    0.012037|
|          28|   -5.588568|   -7.326120|    0.824020|    0.012037|
|          29|   -5.590534|   -7.316672|    0.824016|    0.012037|
|          30|   -5.591958|   -7.308691|    0.824012|    0.012037|
|          31|   -5.592779|   -7.302353|    0.824008|    0.012037|
|          32|   -5.592987|   -7.297937|    0.824005|    0.012037|
|          33|   -5.592599|   -7.295717|    0.824002|    0.012036|
|          34|   -5.591648|   -7.295876|    0.823998|    0.012036|
|          35|   -5.590174|   -7.298459|    0.823995|    0.012035|
|          36|   -5.588233|   -7.303368|    0.823992|    0.012034|
|          37|   -5.585891|   -7.310373|    0.823989|    0.012033|
|          38|   -5.583225|   -7.319143|    0.823986|    0.012033|
|          39|   -5.580313|   -7.329270|    0.823983|    0.012032|
|          40|   -5.577228|   -7.340295|    0.823980|    0.012031|
|          41|   -5.574031|   -7.351723|    0.823977|    0.012029|
|          42|   -5.570767|   -7.363041|    0.823974|    0.012028|
|          43|   -5.567465|   -7.373732|    0.823971|    0.012027|
|          44|   -5.564141|   -7.383307|    0.823968|    0.012026|
|          45|   -5.560793|   -7.391341|    0.823966|    0.012025|
|          46|   -5.557411|   -7.397524|    0.823963|    0.012024|
|          47|   -5.553967|   -7.401706|    0.823960|    0.012023|
|          48|   -5.550420|   -7.403922|    0.823958|    0.012022|
|          49|   -5.546719|   -7.404389|    0.823955|    0.012021|
|          50|   -5.542808|   -7.403475|    0.823953|    0.012020|
|          51|   -5.538635|   -7.401636|    0.823952|    0.012019|
|          52|   -5.534162|   -7.399351|    0.823951|    0.012018|
|          53|   -5.529368|   -7.397060|    0.823950|    0.012017|
|          54|   -5.524263|   -7.395127|    0.823950|    0.012016|
|          55|   -5.518878|   -7.393815|    0.823950|    0.012015|
|          56|   -5.513270|   -7.393288|    0.823951|    0.012014|
|          57|   -5.507511|   -7.393615|    0.823952|    0.012013|
|          58|   -5.501678|   -7.394794|    0.823953|    0.012013|
|          59|   -5.495849|   -7.396759|    0.823955|    0.012012|
|          60|   -5.490093|   -7.399403|    0.823957|    0.012011|
|          61|   -5.484465|   -7.402579|    0.823960|    0.012010|
|          62|   -5.479009|   -7.406114|    0.823963|    0.012010|
|          63|   -5.473750|   -7.409813|    0.823966|    0.012009|
|          64|   -5.468702|   -7.413463|    0.823969|    0.012008|
|          65|   -5.463870|   -7.416854|    0.823972|    0.012008|
|          66|   -5.459249|   -7.419796|    0.823975|    0.012007|
|          67|   -5.454835|   -7.422148|    0.823979|    0.012006|
|          68|   -5.450620|   -7.423843|    0.823982|    0.012006|
|          69|   -5.446600|   -7.424901|    0.823985|    0.012005|
|          70|   -5.442775|   -7.425428|    0.823988|    0.012005|
|          71|   -5.439149|   -7.425602|    0.823991|    0.012005|
|          72|   -5.435729|   -7.425643|    0.823993|    0.012004|
|          73|   -5.432525|   -7.425775|    0.823996|    0.012004|
|          74|   -5.429545|   -7.426195|    0.823998|    0.012003|
|          75|   -5.426796|   -7.427044|    0.824000|    0.012003|
|          76|   -5.424280|   -7.428396|    0.824002|    0.012003|
|          77|   -5.421993|   -7.430254|    0.824003|    0.012003|
|          78|   -5.419922|   -7.432557|    0.824005|    0.012002|
|          79|   -5.418051|   -7.435198|    0.824006|    0.012002|
|          80|   -5.416354|   -7.438049|    0.824007|    0.012002|
|          81|   -5.414804|   -7.440979|    0.824008|    0.012002|
|          82|   -5.413375|   -7.443879|    0.824009|    0.012002|
|          83|   -5.412042|   -7.446676|    0.824010|    0.012001|
|          84|   -5.410786|   -7.449339|    0.824011|    0.012001|
|          85|   -5.409595|   -7.451876|    0.824012|    0.012001|
|          86|   -5.408467|   -7.454330|    0.824013|    0.012001|
|          87|   -5.407411|   -7.456761|    0.824013|    0.012001|
|          88|   -5.406444|   -7.459235|    0.824014|    0.012001|
|          89|   -5.405591|   -7.461814|    0.824014|    0.012001|
|          90|   -5.404881|   -7.464542|    0.824015|    0.012001|
|          91|   -5.404351|   -7.467445|    0.824016|    0.012002|
|          92|   -5.404037|   -7.470527|    0.824016|    0.012002|
|          93|   -5.403972|   -7.473774|    0.824017|    0.012002|
|          94|   -5.404191|   -7.477159|    0.824018|    0.012002|
|          95|   -5.404721|   -7.480644|    0.824018|    0.012002|
|          96|   -5.405585|   -7.484187|    0.824019|    0.012002|
|          97|   -5.406797|   -7.487746|    0.824020|    0.012003|
|          98|   -5.408365|   -7.491282|    0.824021|    0.012003|
|          99|   -5.410286|   -7.494764|    0.824022|    0.012003|
|         100|   -5.412548|   -7.498164|    0.824023|    0.012004|
|         101|   -5.415126|   -7.501461|    0.824024|    0.012003|
+-----------------------------------------------------------------------+
|Fixed CL Mode                           |Value                         |
+-----------------------------------------------------------------------+
|Current CL                              |0.824024                      |
|Target CL                               |0.824                         |
|Previous AOA                            |2.7811                        |
|Changed AoA by                          |-0.00011503                   |
+-----------------------------------------------------------------------+
+----------------------------------------------------------------+
|  Inner_Iter|    rms[Rho]|     rms[nu]|          CL|          CD|
+----------------------------------------------------------------+
|         102|   -4.131608|   -7.496874|    0.824025|    0.012003|
|         103|   -4.509149|   -7.503677|    0.824026|    0.012004|
|         104|   -4.737149|   -7.507739|    0.824028|    0.012004|
|         105|   -4.810134|   -7.511172|    0.824029|    0.012005|
|         106|   -4.862946|   -7.514285|    0.824030|    0.012005|
|         107|   -4.930836|   -7.517150|    0.824032|    0.012006|
|         108|   -5.012907|   -7.519793|    0.824033|    0.012006|
|         109|   -5.096721|   -7.522231|    0.824034|    0.012007|
|         110|   -5.167285|   -7.524474|    0.824035|    0.012008|
|         111|   -5.217341|   -7.526524|    0.824036|    0.012008|
|         112|   -5.248312|   -7.528378|    0.824037|    0.012009|
|         113|   -5.263846|   -7.530040|    0.824038|    0.012010|
|         114|   -5.268004|   -7.531516|    0.824039|    0.012010|
|         115|   -5.266297|   -7.532809|    0.824040|    0.012011|
|         116|   -5.264308|   -7.533920|    0.824041|    0.012011|
|         117|   -5.265450|   -7.534847|    0.824041|    0.012012|
|         118|   -5.270285|   -7.535590|    0.824042|    0.012013|
|         119|   -5.277287|   -7.536158|    0.824042|    0.012013|
|         120|   -5.284231|   -7.536560|    0.824042|    0.012014|
|         121|   -5.289514|   -7.536812|    0.824043|    0.012014|
|         122|   -5.292772|   -7.536931|    0.824043|    0.012014|
|         123|   -5.294595|   -7.536938|    0.824043|    0.012015|
|         124|   -5.295810|   -7.536855|    0.824043|    0.012015|
|         125|   -5.296975|   -7.536711|    0.824043|    0.012016|
|         126|   -5.298287|   -7.536532|    0.824042|    0.012016|
|         127|   -5.299729|   -7.536351|    0.824042|    0.012016|
|         128|   -5.301230|   -7.536196|    0.824042|    0.012017|
|         129|   -5.302736|   -7.536098|    0.824042|    0.012017|
|         130|   -5.304210|   -7.536081|    0.824041|    0.012017|
|         131|   -5.305630|   -7.536166|    0.824041|    0.012017|
|         132|   -5.307006|   -7.536373|    0.824041|    0.012018|
|         133|   -5.308394|   -7.536713|    0.824041|    0.012018|
|         134|   -5.309893|   -7.537194|    0.824041|    0.012018|
|         135|   -5.311615|   -7.537819|    0.824040|    0.012018|
|         136|   -5.313648|   -7.538586|    0.824040|    0.012019|
|         137|   -5.316019|   -7.539493|    0.824040|    0.012019|
|         138|   -5.318684|   -7.540531|    0.824040|    0.012019|
|         139|   -5.321530|   -7.541694|    0.824040|    0.012019|
|         140|   -5.324392|   -7.542974|    0.824040|    0.012019|
|         141|   -5.327081|   -7.544365|    0.824040|    0.012020|
|         142|   -5.329424|   -7.545863|    0.824040|    0.012020|
|         143|   -5.331300|   -7.547466|    0.824040|    0.012020|
|         144|   -5.332666|   -7.549177|    0.824039|    0.012020|
|         145|   -5.333563|   -7.551001|    0.824039|    0.012020|
|         146|   -5.334099|   -7.552946|    0.824039|    0.012020|
|         147|   -5.334411|   -7.555022|    0.824039|    0.012020|
|         148|   -5.334631|   -7.557243|    0.824039|    0.012021|
|         149|   -5.334857|   -7.559623|    0.824038|    0.012021|
|         150|   -5.335132|   -7.562179|    0.824038|    0.012021|
|         151|   -5.335451|   -7.564929|    0.824037|    0.012021|
|         152|   -5.335770|   -7.567887|    0.824037|    0.012021|
|         153|   -5.336026|   -7.571067|    0.824036|    0.012021|
|         154|   -5.336154|   -7.574479|    0.824035|    0.012021|
|         155|   -5.336104|   -7.578129|    0.824034|    0.012021|
|         156|   -5.335851|   -7.582020|    0.824033|    0.012021|
|         157|   -5.335393|   -7.586150|    0.824032|    0.012021|
|         158|   -5.334750|   -7.590512|    0.824031|    0.012021|
|         159|   -5.333955|   -7.595093|    0.824030|    0.012020|
|         160|   -5.333049|   -7.599873|    0.824029|    0.012020|
|         161|   -5.332073|   -7.604831|    0.824027|    0.012020|
|         162|   -5.331062|   -7.609937|    0.824026|    0.012020|
|         163|   -5.330049|   -7.615160|    0.824024|    0.012020|
|         164|   -5.329060|   -7.620465|    0.824023|    0.012020|
|         165|   -5.328116|   -7.625816|    0.824022|    0.012019|
|         166|   -5.327238|   -7.631176|    0.824020|    0.012019|
|         167|   -5.326441|   -7.636509|    0.824019|    0.012019|
|         168|   -5.325740|   -7.641781|    0.824017|    0.012019|
|         169|   -5.325146|   -7.646966|    0.824016|    0.012018|
|         170|   -5.324668|   -7.652038|    0.824014|    0.012018|
|         171|   -5.324308|   -7.656983|    0.824013|    0.012018|
|         172|   -5.324065|   -7.661787|    0.824012|    0.012017|
|         173|   -5.323934|   -7.666448|    0.824011|    0.012017|
|         174|   -5.323904|   -7.670968|    0.824010|    0.012017|
|         175|   -5.323963|   -7.675355|    0.824009|    0.012016|
|         176|   -5.324096|   -7.679623|    0.824008|    0.012016|
|         177|   -5.324288|   -7.683791|    0.824007|    0.012016|
|         178|   -5.324527|   -7.687881|    0.824006|    0.012016|
|         179|   -5.324801|   -7.691917|    0.824006|    0.012015|
|         180|   -5.325105|   -7.695922|    0.824005|    0.012015|
|         181|   -5.325439|   -7.699923|    0.824005|    0.012015|
|         182|   -5.325808|   -7.703941|    0.824005|    0.012014|
|         183|   -5.326223|   -7.707998|    0.824005|    0.012014|
|         184|   -5.326704|   -7.712113|    0.824005|    0.012014|
|         185|   -5.327275|   -7.716303|    0.824005|    0.012013|
|         186|   -5.327964|   -7.720578|    0.824005|    0.012013|
|         187|   -5.328806|   -7.724950|    0.824005|    0.012013|
|         188|   -5.329838|   -7.729422|    0.824006|    0.012013|
|         189|   -5.331096|   -7.733999|    0.824006|    0.012012|
|         190|   -5.332619|   -7.738680|    0.824007|    0.012012|
|         191|   -5.334441|   -7.743462|    0.824007|    0.012012|
|         192|   -5.336596|   -7.748341|    0.824008|    0.012012|
|         193|   -5.339107|   -7.753311|    0.824009|    0.012011|
|         194|   -5.341996|   -7.758362|    0.824010|    0.012011|
|         195|   -5.345272|   -7.763487|    0.824010|    0.012011|
|         196|   -5.348937|   -7.768678|    0.824011|    0.012011|
|         197|   -5.352979|   -7.773926|    0.824012|    0.012010|
|         198|   -5.357376|   -7.779222|    0.824013|    0.012010|
|         199|   -5.362094|   -7.784560|    0.824014|    0.012010|
|         200|   -5.367083|   -7.789934|    0.824015|    0.012010|
|         201|   -5.372285|   -7.795338|    0.824016|    0.012008|
+-----------------------------------------------------------------------+
|Fixed CL Mode                           |Value                         |
+-----------------------------------------------------------------------+
|Current CL                              |0.824016                      |
|Target CL                               |0.824                         |
|Previous AOA                            |2.78098                       |
|Changed AoA by                          |-7.45233e-05                  |
+-----------------------------------------------------------------------+
+----------------------------------------------------------------+
|  Inner_Iter|    rms[Rho]|     rms[nu]|          CL|          CD|
+----------------------------------------------------------------+
|         202|   -4.319595|   -7.787694|    0.824017|    0.012008|
|         203|   -4.695448|   -7.798921|    0.824018|    0.012008|
|         204|   -4.915785|   -7.806018|    0.824019|    0.012008|
|         205|   -4.979727|   -7.812442|    0.824020|    0.012008|
|         206|   -5.023846|   -7.818728|    0.824021|    0.012007|
|         207|   -5.080766|   -7.824991|    0.824022|    0.012007|
|         208|   -5.147406|   -7.831266|    0.824023|    0.012007|
|         209|   -5.211332|   -7.837567|    0.824024|    0.012007|
|         210|   -5.261338|   -7.843892|    0.824025|    0.012007|
|         211|   -5.295036|   -7.850224|    0.824026|    0.012007|
|         212|   -5.316095|   -7.856551|    0.824027|    0.012007|
|         213|   -5.328211|   -7.862876|    0.824027|    0.012007|
|         214|   -5.334074|   -7.869217|    0.824028|    0.012006|
|         215|   -5.336577|   -7.875598|    0.824029|    0.012006|
|         216|   -5.338664|   -7.882033|    0.824030|    0.012006|
|         217|   -5.342290|   -7.888531|    0.824031|    0.012006|
|         218|   -5.347901|   -7.895103|    0.824031|    0.012006|
|         219|   -5.354759|   -7.901759|    0.824032|    0.012006|
|         220|   -5.361757|   -7.908514|    0.824033|    0.012006|
|         221|   -5.368167|   -7.915377|    0.824033|    0.012007|
|         222|   -5.373938|   -7.922344|    0.824034|    0.012007|
|         223|   -5.379480|   -7.929409|    0.824034|    0.012007|
|         224|   -5.385263|   -7.936558|    0.824035|    0.012007|
|         225|   -5.391530|   -7.943775|    0.824035|    0.012007|
|         226|   -5.398275|   -7.951043|    0.824036|    0.012007|
|         227|   -5.405354|   -7.958346|    0.824036|    0.012007|
|         228|   -5.412622|   -7.965672|    0.824036|    0.012007|
|         229|   -5.419998|   -7.973010|    0.824037|    0.012008|
|         230|   -5.427477|   -7.980349|    0.824037|    0.012008|
|         231|   -5.435120|   -7.987681|    0.824037|    0.012008|
|         232|   -5.443042|   -7.995001|    0.824037|    0.012008|
|         233|   -5.451406|   -8.002300|    0.824037|    0.012008|
|         234|   -5.460398|   -8.009572|    0.824037|    0.012009|
|         235|   -5.470194|   -8.016806|    0.824038|    0.012009|
|         236|   -5.480913|   -8.023993|    0.824038|    0.012009|
|         237|   -5.492593|   -8.031119|    0.824038|    0.012009|
|         238|   -5.505168|   -8.038171|    0.824037|    0.012009|
|         239|   -5.518472|   -8.045129|    0.824037|    0.012010|
|         240|   -5.532240|   -8.051972|    0.824037|    0.012010|
|         241|   -5.546143|   -8.058679|    0.824037|    0.012010|
|         242|   -5.559821|   -8.065227|    0.824037|    0.012010|
|         243|   -5.572940|   -8.071590|    0.824037|    0.012011|
|         244|   -5.585245|   -8.077743|    0.824037|    0.012011|
|         245|   -5.596593|   -8.083658|    0.824037|    0.012011|
|         246|   -5.606965|   -8.089309|    0.824036|    0.012011|
|         247|   -5.616431|   -8.094669|    0.824036|    0.012012|
|         248|   -5.625107|   -8.099713|    0.824036|    0.012012|
|         249|   -5.633102|   -8.104421|    0.824036|    0.012012|
|         250|   -5.640476|   -8.108775|    0.824035|    0.012012|
|         251|   -5.647234|   -8.112760|    0.824035|    0.012013|
|         252|   -5.653328|   -8.116373|    0.824035|    0.012013|
|         253|   -5.658688|   -8.119623|    0.824034|    0.012013|
|         254|   -5.663254|   -8.122519|    0.824034|    0.012013|
|         255|   -5.667001|   -8.125085|    0.824033|    0.012013|
|         256|   -5.669954|   -8.127358|    0.824033|    0.012014|
|         257|   -5.672196|   -8.129385|    0.824032|    0.012014|
|         258|   -5.673848|   -8.131223|    0.824032|    0.012014|
|         259|   -5.675059|   -8.132938|    0.824031|    0.012014|
|         260|   -5.675977|   -8.134600|    0.824030|    0.012014|
|         261|   -5.676742|   -8.136285|    0.824030|    0.012014|
|         262|   -5.677470|   -8.138067|    0.824029|    0.012014|
|         263|   -5.678253|   -8.140017|    0.824028|    0.012015|
|         264|   -5.679160|   -8.142201|    0.824027|    0.012015|
|         265|   -5.680240|   -8.144680|    0.824027|    0.012015|
|         266|   -5.681530|   -8.147501|    0.824026|    0.012015|
|         267|   -5.683060|   -8.150701|    0.824025|    0.012015|
|         268|   -5.684851|   -8.154299|    0.824024|    0.012015|
|         269|   -5.686924|   -8.158300|    0.824023|    0.012015|
|         270|   -5.689293|   -8.162689|    0.824022|    0.012015|
|         271|   -5.691970|   -8.167427|    0.824021|    0.012015|
|         272|   -5.694961|   -8.172452|    0.824020|    0.012015|
|         273|   -5.698269|   -8.177677|    0.824019|    0.012015|
|         274|   -5.701890|   -8.182987|    0.824018|    0.012015|
|         275|   -5.705817|   -8.188246|    0.824017|    0.012015|
|         276|   -5.710037|   -8.193293|    0.824016|    0.012015|
|         277|   -5.714537|   -8.197957|    0.824015|    0.012015|
|         278|   -5.719297|   -8.202052|    0.824014|    0.012015|
|         279|   -5.724298|   -8.205400|    0.824013|    0.012014|
|         280|   -5.729519|   -8.207839|    0.824012|    0.012014|
|         281|   -5.734937|   -8.209238|    0.824011|    0.012014|
|         282|   -5.740527|   -8.209510|    0.824010|    0.012014|
|         283|   -5.746266|   -8.208617|    0.824009|    0.012014|
|         284|   -5.752126|   -8.206579|    0.824008|    0.012014|
|         285|   -5.758080|   -8.203471|    0.824008|    0.012014|
|         286|   -5.764099|   -8.199420|    0.824007|    0.012014|
|         287|   -5.770155|   -8.194593|    0.824006|    0.012013|
|         288|   -5.776218|   -8.189187|    0.824006|    0.012013|
|         289|   -5.782257|   -8.183414|    0.824005|    0.012013|
|         290|   -5.788242|   -8.177487|    0.824005|    0.012013|
|         291|   -5.794145|   -8.171612|    0.824005|    0.012013|
|         292|   -5.799937|   -8.165983|    0.824004|    0.012012|
|         293|   -5.805593|   -8.160771|    0.824004|    0.012012|
|         294|   -5.811089|   -8.156127|    0.824004|    0.012012|
|         295|   -5.816405|   -8.152176|    0.824004|    0.012012|
|         296|   -5.821525|   -8.149024|    0.824004|    0.012012|
|         297|   -5.826437|   -8.146753|    0.824004|    0.012012|
|         298|   -5.831133|   -8.145426|    0.824004|    0.012011|
|         299|   -5.835609|   -8.145087|    0.824004|    0.012011|
|         300|   -5.839866|   -8.145764|    0.824004|    0.012011|
|         301|   -5.843908|   -8.147467|    0.824004|    0.012010|
+-----------------------------------------------------------------------+
|Fixed CL Mode                           |Value                         |
+-----------------------------------------------------------------------+
|Current CL                              |0.824004                      |
|Target CL                               |0.824                         |
|Previous AOA                            |2.78091                       |
|Changed AoA by                          |-1.89838e-05                  |
+-----------------------------------------------------------------------+
+----------------------------------------------------------------+
|  Inner_Iter|    rms[Rho]|     rms[nu]|          CL|          CD|
+----------------------------------------------------------------+
|         302|   -4.911699|   -8.145449|    0.824004|    0.012010|
|         303|   -5.277304|   -8.151262|    0.824004|    0.012010|
|         304|   -5.476958|   -8.156605|    0.824005|    0.012010|
|         305|   -5.532082|   -8.162583|    0.824005|    0.012010|
|         306|   -5.570496|   -8.169300|    0.824005|    0.012010|
|         307|   -5.618582|   -8.176713|    0.824006|    0.012009|
|         308|   -5.672624|   -8.184742|    0.824006|    0.012009|
|         309|   -5.722743|   -8.193287|    0.824006|    0.012009|
|         310|   -5.761875|   -8.202227|    0.824007|    0.012009|
|         311|   -5.789587|   -8.211416|    0.824007|    0.012009|
|         312|   -5.808637|   -8.220693|    0.824008|    0.012009|
|         313|   -5.821204|   -8.229889|    0.824008|    0.012008|
|         314|   -5.828758|   -8.238831|    0.824009|    0.012008|
|         315|   -5.833063|   -8.247349|    0.824009|    0.012008|
|         316|   -5.836134|   -8.255284|    0.824009|    0.012008|
|         317|   -5.839479|   -8.262499|    0.824010|    0.012008|
|         318|   -5.843648|   -8.268889|    0.824010|    0.012008|
|         319|   -5.848382|   -8.274388|    0.824011|    0.012008|
|         320|   -5.853120|   -8.278977|    0.824011|    0.012008|
|         321|   -5.857464|   -8.282675|    0.824011|    0.012008|
|         322|   -5.861347|   -8.285542|    0.824012|    0.012008|
|         323|   -5.864906|   -8.287666|    0.824012|    0.012008|
|         324|   -5.868255|   -8.289158|    0.824013|    0.012008|
|         325|   -5.871364|   -8.290147|    0.824013|    0.012008|
|         326|   -5.874075|   -8.290765|    0.824013|    0.012008|
|         327|   -5.876205|   -8.291151|    0.824014|    0.012008|
|         328|   -5.877640|   -8.291433|    0.824014|    0.012008|
|         329|   -5.878363|   -8.291729|    0.824014|    0.012008|
|         330|   -5.878448|   -8.292139|    0.824015|    0.012008|
|         331|   -5.878019|   -8.292743|    0.824015|    0.012008|
|         332|   -5.877231|   -8.293604|    0.824015|    0.012008|
|         333|   -5.876243|   -8.294759|    0.824015|    0.012008|
|         334|   -5.875197|   -8.296227|    0.824016|    0.012008|
|         335|   -5.874203|   -8.298010|    0.824016|    0.012008|
|         336|   -5.873329|   -8.300086|    0.824016|    0.012008|
|         337|   -5.872597|   -8.302424|    0.824016|    0.012008|
|         338|   -5.871995|   -8.304975|    0.824017|    0.012008|
|         339|   -5.871487|   -8.307682|    0.824017|    0.012008|
|         340|   -5.871031|   -8.310477|    0.824017|    0.012008|
|         341|   -5.870589|   -8.313289|    0.824017|    0.012008|
|         342|   -5.870143|   -8.316043|    0.824017|    0.012008|
|         343|   -5.869699|   -8.318665|    0.824017|    0.012009|
|         344|   -5.869293|   -8.321081|    0.824018|    0.012009|
|         345|   -5.868983|   -8.323226|    0.824018|    0.012009|
|         346|   -5.868843|   -8.325040|    0.824018|    0.012009|
|         347|   -5.868947|   -8.326472|    0.824018|    0.012009|
|         348|   -5.869359|   -8.327487|    0.824018|    0.012009|
|         349|   -5.870127|   -8.328057|    0.824018|    0.012009|
|         350|   -5.871276|   -8.328172|    0.824018|    0.012009|
|         351|   -5.872811|   -8.327831|    0.824018|    0.012010|
|         352|   -5.874724|   -8.327048|    0.824018|    0.012010|
|         353|   -5.876995|   -8.325847|    0.824018|    0.012010|
|         354|   -5.879606|   -8.324262|    0.824018|    0.012010|
|         355|   -5.882537|   -8.322335|    0.824018|    0.012010|
|         356|   -5.885776|   -8.320116|    0.824018|    0.012010|
|         357|   -5.889313|   -8.317658|    0.824018|    0.012010|
|         358|   -5.893145|   -8.315017|    0.824018|    0.012010|
|         359|   -5.897269|   -8.312249|    0.824018|    0.012011|
|         360|   -5.901680|   -8.309412|    0.824018|    0.012011|
|         361|   -5.906369|   -8.306561|    0.824018|    0.012011|
|         362|   -5.911324|   -8.303752|    0.824017|    0.012011|
|         363|   -5.916525|   -8.301037|    0.824017|    0.012011|
|         364|   -5.921947|   -8.298466|    0.824017|    0.012011|
|         365|   -5.927559|   -8.296085|    0.824017|    0.012011|
|         366|   -5.933326|   -8.293938|    0.824016|    0.012011|
|         367|   -5.939211|   -8.292065|    0.824016|    0.012011|
|         368|   -5.945171|   -8.290499|    0.824016|    0.012012|
|         369|   -5.951163|   -8.289274|    0.824015|    0.012012|
|         370|   -5.957142|   -8.288415|    0.824015|    0.012012|
|         371|   -5.963059|   -8.287944|    0.824015|    0.012012|
|         372|   -5.968868|   -8.287878|    0.824014|    0.012012|
|         373|   -5.974518|   -8.288227|    0.824014|    0.012012|
|         374|   -5.979961|   -8.288996|    0.824013|    0.012012|
|         375|   -5.985150|   -8.290184|    0.824013|    0.012012|
|         376|   -5.990041|   -8.291785|    0.824012|    0.012012|
|         377|   -5.994593|   -8.293785|    0.824012|    0.012012|
|         378|   -5.998772|   -8.296160|    0.824011|    0.012012|
|         379|   -6.002547|   -8.298883|    0.824011|    0.012012|
|         380|   -6.005899|   -8.301918|    0.824010|    0.012012|
|         381|   -6.008814|   -8.305223|    0.824010|    0.012012|
|         382|   -6.011290|   -8.308750|    0.824009|    0.012012|
|         383|   -6.013332|   -8.312448|    0.824009|    0.012012|
|         384|   -6.014954|   -8.316261|    0.824008|    0.012012|
|         385|   -6.016178|   -8.320128|    0.824008|    0.012012|
|         386|   -6.017033|   -8.323990|    0.824007|    0.012012|
|         387|   -6.017554|   -8.327787|    0.824007|    0.012012|
|         388|   -6.017780|   -8.331465|    0.824006|    0.012012|
|         389|   -6.017753|   -8.334974|    0.824006|    0.012012|
|         390|   -6.017516|   -8.338274|    0.824005|    0.012012|
|         391|   -6.017114|   -8.341334|    0.824005|    0.012012|
|         392|   -6.016589|   -8.344136|    0.824005|    0.012012|
|         393|   -6.015982|   -8.346672|    0.824004|    0.012012|
|         394|   -6.015329|   -8.348951|    0.824004|    0.012012|
|         395|   -6.014666|   -8.350990|    0.824003|    0.012012|
|         396|   -6.014023|   -8.352819|    0.824003|    0.012012|
|         397|   -6.013425|   -8.354477|    0.824003|    0.012012|
|         398|   -6.012896|   -8.356008|    0.824002|    0.012012|
|         399|   -6.012452|   -8.357464|    0.824002|    0.012012|
|         400|   -6.012110|   -8.358898|    0.824002|    0.012012|
|         401|   -6.011879|   -8.360363|    0.824001|    0.012011|
+-----------------------------------------------------------------------+
|Fixed CL Mode                           |Value                         |
+-----------------------------------------------------------------------+
|Current CL                              |0.824001                      |
|Target CL                               |0.824                         |
|Previous AOA                            |2.78089                       |
|Changed AoA by                          |-8.68809e-06                  |
+-----------------------------------------------------------------------+
+----------------------------------------------------------------+
|  Inner_Iter|    rms[Rho]|     rms[nu]|          CL|          CD|
+----------------------------------------------------------------+
|         402|   -5.248848|   -8.359485|    0.824001|    0.012011|
|         403|   -5.606726|   -8.362387|    0.824001|    0.012011|
|         404|   -5.789366|   -8.364673|    0.824001|    0.012011|
|         405|   -5.831104|   -8.366994|    0.824001|    0.012011|
|         406|   -5.856044|   -8.369457|    0.824000|    0.012011|
|         407|   -5.887022|   -8.372105|    0.824000|    0.012011|
|         408|   -5.920126|   -8.374966|    0.824000|    0.012011|
|         409|   -5.948212|   -8.378061|    0.824000|    0.012011|
|         410|   -5.968035|   -8.381398|    0.824000|    0.012011|
|         411|   -5.980925|   -8.384970|    0.824000|    0.012010|
|         412|   -5.989386|   -8.388760|    0.824000|    0.012010|
|         413|   -5.995016|   -8.392744|    0.824000|    0.012010|
|         414|   -5.998722|   -8.396888|    0.824000|    0.012010|
|         415|   -6.001350|   -8.401156|    0.823999|    0.012010|
|         416|   -6.003767|   -8.405500|    0.823999|    0.012010|
|         417|   -6.006591|   -8.409873|    0.823999|    0.012010|
|         418|   -6.010026|   -8.414223|    0.823999|    0.012010|
|         419|   -6.013937|   -8.418505|    0.823999|    0.012010|
|         420|   -6.018079|   -8.422673|    0.823999|    0.012010|
|         421|   -6.022301|   -8.426688|    0.824000|    0.012010|
|         422|   -6.026603|   -8.430518|    0.824000|    0.012010|
|         423|   -6.031063|   -8.434135|    0.824000|    0.012010|
|         424|   -6.035731|   -8.437524|    0.824000|    0.012010|
|         425|   -6.040569|   -8.440675|    0.824000|    0.012009|
|         426|   -6.045462|   -8.443589|    0.824000|    0.012009|
|         427|   -6.050274|   -8.446276|    0.824000|    0.012009|
|         428|   -6.054895|   -8.448754|    0.824000|    0.012009|
|         429|   -6.059274|   -8.451046|    0.824000|    0.012009|
|         430|   -6.063413|   -8.453182|    0.824000|    0.012009|
|         431|   -6.067359|   -8.455192|    0.824000|    0.012009|
|         432|   -6.071185|   -8.457106|    0.824000|    0.012009|
|         433|   -6.074969|   -8.458952|    0.824000|    0.012009|
|         434|   -6.078779|   -8.460756|    0.824000|    0.012009|
|         435|   -6.082651|   -8.462539|    0.824001|    0.012009|
|         436|   -6.086582|   -8.464315|    0.824001|    0.012009|
|         437|   -6.090522|   -8.466095|    0.824001|    0.012009|
|         438|   -6.094387|   -8.467881|    0.824001|    0.012009|
|         439|   -6.098066|   -8.469670|    0.824001|    0.012009|
|         440|   -6.101438|   -8.471452|    0.824001|    0.012009|
|         441|   -6.104391|   -8.473212|    0.824001|    0.012009|
|         442|   -6.106832|   -8.474927|    0.824002|    0.012009|
|         443|   -6.108702|   -8.476572|    0.824002|    0.012009|
|         444|   -6.109978|   -8.478118|    0.824002|    0.012009|
|         445|   -6.110672|   -8.479529|    0.824002|    0.012009|
|         446|   -6.110823|   -8.480771|    0.824002|    0.012010|
|         447|   -6.110484|   -8.481805|    0.824002|    0.012010|
|         448|   -6.109716|   -8.482595|    0.824002|    0.012010|
|         449|   -6.108574|   -8.483103|    0.824003|    0.012010|
|         450|   -6.107105|   -8.483297|    0.824003|    0.012010|
|         451|   -6.105351|   -8.483147|    0.824003|    0.012010|
|         452|   -6.103346|   -8.482630|    0.824003|    0.012010|
|         453|   -6.101125|   -8.481729|    0.824003|    0.012010|
|         454|   -6.098726|   -8.480436|    0.824003|    0.012010|
|         455|   -6.096191|   -8.478750|    0.824003|    0.012010|
|         456|   -6.093568|   -8.476680|    0.824003|    0.012010|
|         457|   -6.090907|   -8.474244|    0.824004|    0.012010|
|         458|   -6.088261|   -8.471469|    0.824004|    0.012010|
|         459|   -6.085682|   -8.468388|    0.824004|    0.012010|
|         460|   -6.083219|   -8.465043|    0.824004|    0.012010|
|         461|   -6.080918|   -8.461478|    0.824004|    0.012011|
|         462|   -6.078817|   -8.457744|    0.824004|    0.012011|
|         463|   -6.076950|   -8.453892|    0.824004|    0.012011|
|         464|   -6.075345|   -8.449975|    0.824004|    0.012011|
|         465|   -6.074028|   -8.446046|    0.824004|    0.012011|
|         466|   -6.073018|   -8.442155|    0.824004|    0.012011|
|         467|   -6.072333|   -8.438351|    0.824004|    0.012011|
|         468|   -6.071985|   -8.434680|    0.824004|    0.012011|
|         469|   -6.071985|   -8.431179|    0.824004|    0.012011|
|         470|   -6.072343|   -8.427886|    0.824004|    0.012011|
|         471|   -6.073064|   -8.424830|    0.824004|    0.012011|
|         472|   -6.074150|   -8.422036|    0.824004|    0.012011|
|         473|   -6.075604|   -8.419525|    0.824004|    0.012011|
|         474|   -6.077422|   -8.417310|    0.824004|    0.012011|
|         475|   -6.079601|   -8.415399|    0.824004|    0.012012|
|         476|   -6.082133|   -8.413797|    0.824003|    0.012012|
|         477|   -6.085010|   -8.412500|    0.824003|    0.012012|
|         478|   -6.088220|   -8.411504|    0.824003|    0.012012|
|         479|   -6.091748|   -8.410797|    0.824003|    0.012012|
|         480|   -6.095579|   -8.410368|    0.824003|    0.012012|
|         481|   -6.099692|   -8.410198|    0.824003|    0.012012|
|         482|   -6.104066|   -8.410270|    0.824003|    0.012012|
|         483|   -6.108676|   -8.410561|    0.824002|    0.012012|
|         484|   -6.113494|   -8.411051|    0.824002|    0.012012|
|         485|   -6.118491|   -8.411714|    0.824002|    0.012012|
|         486|   -6.123632|   -8.412530|    0.824002|    0.012012|
|         487|   -6.128884|   -8.413475|    0.824002|    0.012012|
|         488|   -6.134206|   -8.414528|    0.824001|    0.012012|
|         489|   -6.139558|   -8.415670|    0.824001|    0.012012|
|         490|   -6.144896|   -8.416884|    0.824001|    0.012012|
|         491|   -6.150177|   -8.418156|    0.824001|    0.012012|
|         492|   -6.155352|   -8.419474|    0.824001|    0.012012|
|         493|   -6.160375|   -8.420829|    0.824000|    0.012012|
|         494|   -6.165198|   -8.422217|    0.824000|    0.012012|
|         495|   -6.169776|   -8.423634|    0.824000|    0.012012|
|         496|   -6.174064|   -8.425081|    0.824000|    0.012012|
|         497|   -6.178020|   -8.426562|    0.824000|    0.012012|
|         498|   -6.181607|   -8.428081|    0.823999|    0.012012|
|         499|   -6.184793|   -8.429645|    0.823999|    0.012011|
|         500|   -6.187550|   -8.431263|    0.823999|    0.012011|
|         501|   -6.189860|   -8.432944|    0.823999|    0.012011|
+-----------------------------------------------------------------------+
|Fixed CL Mode                           |Value                         |
+-----------------------------------------------------------------------+
|Current CL                              |0.823999                      |
|Target CL                               |0.824                         |
|Previous AOA                            |2.78088                       |
|Changed AoA by                          |4.90164e-06                   |
+-----------------------------------------------------------------------+
+----------------------------------------------------------------+
|  Inner_Iter|    rms[Rho]|     rms[nu]|          CL|          CD|
+----------------------------------------------------------------+
|         502|   -5.492404|   -8.433509|    0.823999|    0.012011|
|         503|   -5.828631|   -8.435846|    0.823998|    0.012011|
|         504|   -5.988832|   -8.437916|    0.823998|    0.012011|
|         505|   -6.033801|   -8.440023|    0.823998|    0.012011|
|         506|   -6.064169|   -8.442223|    0.823998|    0.012011|
|         507|   -6.095929|   -8.444536|    0.823998|    0.012011|
|         508|   -6.125460|   -8.446970|    0.823998|    0.012011|
|         509|   -6.147530|   -8.449529|    0.823998|    0.012011|
|         510|   -6.160801|   -8.452212|    0.823997|    0.012011|
|         511|   -6.167494|   -8.455015|    0.823997|    0.012011|
|         512|   -6.170225|   -8.457932|    0.823997|    0.012011|
|         513|   -6.170554|   -8.460957|    0.823997|    0.012011|
|         514|   -6.169375|   -8.464085|    0.823997|    0.012011|
|         515|   -6.167459|   -8.467306|    0.823997|    0.012011|
|         516|   -6.165504|   -8.470612|    0.823997|    0.012010|
|         517|   -6.163949|   -8.473992|    0.823997|    0.012010|
|         518|   -6.162885|   -8.477438|    0.823997|    0.012010|
|         519|   -6.162151|   -8.480940|    0.823996|    0.012010|
|         520|   -6.161518|   -8.484490|    0.823996|    0.012010|
|         521|   -6.160848|   -8.488078|    0.823996|    0.012010|
|         522|   -6.160133|   -8.491696|    0.823996|    0.012010|
|         523|   -6.159458|   -8.495338|    0.823996|    0.012010|
|         524|   -6.158925|   -8.498995|    0.823996|    0.012010|
|         525|   -6.158608|   -8.502662|    0.823996|    0.012010|
|         526|   -6.158551|   -8.506332|    0.823996|    0.012010|
|         527|   -6.158775|   -8.510002|    0.823996|    0.012010|
|         528|   -6.159299|   -8.513668|    0.823996|    0.012010|
|         529|   -6.160136|   -8.517328|    0.823996|    0.012010|
|         530|   -6.161295|   -8.520984|    0.823996|    0.012010|
|         531|   -6.162779|   -8.524636|    0.823996|    0.012010|
|         532|   -6.164587|   -8.528287|    0.823996|    0.012010|
|         533|   -6.166717|   -8.531943|    0.823996|    0.012010|
|         534|   -6.169168|   -8.535610|    0.823996|    0.012010|
|         535|   -6.171940|   -8.539296|    0.823996|    0.012010|
|         536|   -6.175030|   -8.543012|    0.823996|    0.012010|
|         537|   -6.178433|   -8.546768|    0.823996|    0.012010|
|         538|   -6.182138|   -8.550576|    0.823996|    0.012010|
|         539|   -6.186128|   -8.554449|    0.823996|    0.012010|
|         540|   -6.190379|   -8.558401|    0.823996|    0.012010|
|         541|   -6.194862|   -8.562443|    0.823996|    0.012010|
|         542|   -6.199542|   -8.566591|    0.823997|    0.012010|
|         543|   -6.204384|   -8.570855|    0.823997|    0.012010|
|         544|   -6.209354|   -8.575246|    0.823997|    0.012010|
|         545|   -6.214418|   -8.579775|    0.823997|    0.012010|
|         546|   -6.219545|   -8.584451|    0.823997|    0.012010|
|         547|   -6.224703|   -8.589278|    0.823997|    0.012010|
|         548|   -6.229855|   -8.594261|    0.823997|    0.012010|
|         549|   -6.234962|   -8.599402|    0.823997|    0.012010|
|         550|   -6.239977|   -8.604699|    0.823997|    0.012010|
|         551|   -6.244848|   -8.610150|    0.823997|    0.012010|
|         552|   -6.249520|   -8.615747|    0.823997|    0.012010|
|         553|   -6.253938|   -8.621479|    0.823997|    0.012010|
|         554|   -6.258049|   -8.627335|    0.823997|    0.012010|
|         555|   -6.261805|   -8.633295|    0.823997|    0.012010|
|         556|   -6.265166|   -8.639339|    0.823998|    0.012010|
|         557|   -6.268104|   -8.645441|    0.823998|    0.012010|
|         558|   -6.270597|   -8.651573|    0.823998|    0.012010|
|         559|   -6.272638|   -8.657703|    0.823998|    0.012010|
|         560|   -6.274226|   -8.663798|    0.823998|    0.012010|
|         561|   -6.275371|   -8.669818|    0.823998|    0.012011|
|         562|   -6.276089|   -8.675724|    0.823998|    0.012011|
|         563|   -6.276405|   -8.681474|    0.823998|    0.012011|
|         564|   -6.276351|   -8.687023|    0.823998|    0.012011|
|         565|   -6.275964|   -8.692328|    0.823998|    0.012011|
|         566|   -6.275288|   -8.697346|    0.823998|    0.012011|
|         567|   -6.274367|   -8.702037|    0.823998|    0.012011|
|         568|   -6.273253|   -8.706364|    0.823998|    0.012011|
|         569|   -6.271995|   -8.710294|    0.823998|    0.012011|
|         570|   -6.270645|   -8.713801|    0.823998|    0.012011|
|         571|   -6.269254|   -8.716864|    0.823999|    0.012011|
|         572|   -6.267870|   -8.719472|    0.823999|    0.012011|
|         573|   -6.266542|   -8.721622|    0.823999|    0.012011|
|         574|   -6.265312|   -8.723317|    0.823999|    0.012012|
|         575|   -6.264221|   -8.724573|    0.823999|    0.012012|
|         576|   -6.263308|   -8.725410|    0.823999|    0.012012|
|         577|   -6.262606|   -8.725858|    0.823999|    0.012012|
|         578|   -6.262146|   -8.725951|    0.823999|    0.012012|
|         579|   -6.261955|   -8.725731|    0.823999|    0.012012|
|         580|   -6.262056|   -8.725242|    0.823999|    0.012012|
|         581|   -6.262471|   -8.724529|    0.823998|    0.012012|
|         582|   -6.263216|   -8.723641|    0.823998|    0.012012|
|         583|   -6.264306|   -8.722623|    0.823998|    0.012012|
|         584|   -6.265752|   -8.721522|    0.823998|    0.012012|
|         585|   -6.267562|   -8.720380|    0.823998|    0.012012|
|         586|   -6.269743|   -8.719237|    0.823998|    0.012012|
|         587|   -6.272296|   -8.718129|    0.823998|    0.012012|
|         588|   -6.275221|   -8.717087|    0.823998|    0.012012|
|         589|   -6.278514|   -8.716137|    0.823998|    0.012012|
|         590|   -6.282171|   -8.715302|    0.823998|    0.012012|
|         591|   -6.286182|   -8.714598|    0.823998|    0.012012|
|         592|   -6.290533|   -8.714037|    0.823998|    0.012012|
|         593|   -6.295211|   -8.713627|    0.823997|    0.012012|
|         594|   -6.300195|   -8.713372|    0.823997|    0.012012|
|         595|   -6.305464|   -8.713270|    0.823997|    0.012012|
|         596|   -6.310991|   -8.713318|    0.823997|    0.012012|
|         597|   -6.316746|   -8.713508|    0.823997|    0.012012|
|         598|   -6.322696|   -8.713830|    0.823997|    0.012012|
|         599|   -6.328801|   -8.714273|    0.823997|    0.012012|
|         600|   -6.335022|   -8.714824|    0.823997|    0.012012|
|         601|   -6.341312|   -8.715467|    0.823996|    0.012012|
+-----------------------------------------------------------------------+
|Fixed CL Mode                           |Value                         |
+-----------------------------------------------------------------------+
|Current CL                              |0.823996                      |
|Target CL                               |0.824                         |
|Previous AOA                            |2.78088                       |
|Changed AoA by                          |1.70946e-05                   |
+-----------------------------------------------------------------------+
+----------------------------------------------------------------+
|  Inner_Iter|    rms[Rho]|     rms[nu]|          CL|          CD|
+----------------------------------------------------------------+
|         602|   -4.959953|   -8.673882|    0.823996|    0.012012|
|         603|   -5.340957|   -8.694297|    0.823996|    0.012012|
|         604|   -5.576609|   -8.701254|    0.823996|    0.012012|
|         605|   -5.651700|   -8.705507|    0.823996|    0.012012|
|         606|   -5.703857|   -8.708791|    0.823996|    0.012012|
|         607|   -5.770967|   -8.711548|    0.823996|    0.012012|
|         608|   -5.852444|   -8.713952|    0.823996|    0.012012|
|         609|   -5.935650|   -8.716110|    0.823995|    0.012012|
|         610|   -6.005749|   -8.718075|    0.823995|    0.012012|
|         611|   -6.056380|   -8.719853|    0.823995|    0.012012|
|         612|   -6.089822|   -8.721442|    0.823995|    0.012012|
|         613|   -6.109683|   -8.722872|    0.823995|    0.012012|
|         614|   -6.119210|   -8.724192|    0.823995|    0.012012|
|         615|   -6.123151|   -8.725438|    0.823995|    0.012012|
|         616|   -6.126919|   -8.726618|    0.823995|    0.012012|
|         617|   -6.134202|   -8.727731|    0.823995|    0.012012|
|         618|   -6.145859|   -8.728779|    0.823994|    0.012012|
|         619|   -6.160418|   -8.729783|    0.823994|    0.012012|
|         620|   -6.175422|   -8.730772|    0.823994|    0.012011|
|         621|   -6.188931|   -8.731780|    0.823994|    0.012011|
|         622|   -6.200388|   -8.732822|    0.823994|    0.012011|
|         623|   -6.210396|   -8.733904|    0.823994|    0.012011|
|         624|   -6.219848|   -8.735028|    0.823994|    0.012011|
|         625|   -6.229211|   -8.736191|    0.823994|    0.012011|
|         626|   -6.238377|   -8.737399|    0.823994|    0.012011|
|         627|   -6.246899|   -8.738654|    0.823994|    0.012011|
|         628|   -6.254312|   -8.739965|    0.823994|    0.012011|
|         629|   -6.260319|   -8.741339|    0.823994|    0.012011|
|         630|   -6.264841|   -8.742784|    0.823994|    0.012011|
|         631|   -6.268002|   -8.744309|    0.823994|    0.012011|
|         632|   -6.270106|   -8.745921|    0.823994|    0.012011|
|         633|   -6.271600|   -8.747624|    0.823994|    0.012011|
|         634|   -6.272999|   -8.749423|    0.823994|    0.012011|
|         635|   -6.274787|   -8.751321|    0.823994|    0.012011|
|         636|   -6.277325|   -8.753318|    0.823994|    0.012010|
|         637|   -6.280803|   -8.755417|    0.823994|    0.012010|
|         638|   -6.285226|   -8.757619|    0.823994|    0.012010|
|         639|   -6.290437|   -8.759928|    0.823994|    0.012010|
|         640|   -6.296161|   -8.762347|    0.823994|    0.012010|
|         641|   -6.302065|   -8.764886|    0.823994|    0.012010|
|         642|   -6.307827|   -8.767553|    0.823994|    0.012010|
|         643|   -6.313219|   -8.770360|    0.823995|    0.012010|
|         644|   -6.318161|   -8.773318|    0.823995|    0.012010|
|         645|   -6.322736|   -8.776441|    0.823995|    0.012010|
|         646|   -6.327165|   -8.779743|    0.823995|    0.012010|
|         647|   -6.331739|   -8.783237|    0.823995|    0.012010|
|         648|   -6.336744|   -8.786934|    0.823995|    0.012010|
|         649|   -6.342394|   -8.790844|    0.823995|    0.012010|
|         650|   -6.348801|   -8.794978|    0.823995|    0.012010|
|         651|   -6.355963|   -8.799341|    0.823996|    0.012010|
|         652|   -6.363784|   -8.803942|    0.823996|    0.012010|
|         653|   -6.372102|   -8.808788|    0.823996|    0.012010|
|         654|   -6.380735|   -8.813873|    0.823996|    0.012010|
|         655|   -6.389510|   -8.819212|    0.823996|    0.012010|
|         656|   -6.398294|   -8.824811|    0.823996|    0.012010|
|         657|   -6.407005|   -8.830673|    0.823997|    0.012010|
|         658|   -6.415609|   -8.836802|    0.823997|    0.012010|
|         659|   -6.424112|   -8.843198|    0.823997|    0.012010|
|         660|   -6.432535|   -8.849865|    0.823997|    0.012010|
|         661|   -6.440897|   -8.856803|    0.823997|    0.012011|
|         662|   -6.449203|   -8.864011|    0.823997|    0.012011|
|         663|   -6.457435|   -8.871484|    0.823998|    0.012011|
|         664|   -6.465548|   -8.879212|    0.823998|    0.012011|
|         665|   -6.473483|   -8.887183|    0.823998|    0.012011|
|         666|   -6.481168|   -8.895380|    0.823998|    0.012011|
|         667|   -6.488531|   -8.903774|    0.823998|    0.012011|
|         668|   -6.495502|   -8.912330|    0.823999|    0.012011|
|         669|   -6.502024|   -8.921005|    0.823999|    0.012011|
|         670|   -6.508053|   -8.929745|    0.823999|    0.012011|
|         671|   -6.513553|   -8.938483|    0.823999|    0.012011|
|         672|   -6.518503|   -8.947144|    0.823999|    0.012011|
|         673|   -6.522892|   -8.955641|    0.824000|    0.012011|
|         674|   -6.526717|   -8.963876|    0.824000|    0.012011|
|         675|   -6.529987|   -8.971746|    0.824000|    0.012011|
|         676|   -6.532720|   -8.979145|    0.824000|    0.012011|
|         677|   -6.534941|   -8.985968|    0.824000|    0.012011|
|         678|   -6.536690|   -8.992116|    0.824000|    0.012011|
|         679|   -6.538012|   -8.997504|    0.824000|    0.012012|
|         680|   -6.538962|   -9.002069|    0.824000|    0.012012|
|         681|   -6.539603|   -9.005772|    0.824000|    0.012012|
|         682|   -6.539998|   -9.008604|    0.824001|    0.012012|
|         683|   -6.540217|   -9.010589|    0.824001|    0.012012|
|         684|   -6.540328|   -9.011782|    0.824001|    0.012012|
|         685|   -6.540399|   -9.012268|    0.824001|    0.012012|
|         686|   -6.540494|   -9.012157|    0.824001|    0.012012|
|         687|   -6.540675|   -9.011579|    0.824001|    0.012012|
|         688|   -6.540999|   -9.010677|    0.824001|    0.012012|
|         689|   -6.541517|   -9.009600|    0.824001|    0.012012|
|         690|   -6.542275|   -9.008497|    0.824001|    0.012012|
|         691|   -6.543314|   -9.007511|    0.824000|    0.012012|
|         692|   -6.544668|   -9.006776|    0.824000|    0.012012|
|         693|   -6.546365|   -9.006415|    0.824000|    0.012012|
|         694|   -6.548429|   -9.006534|    0.824000|    0.012012|
|         695|   -6.550876|   -9.007226|    0.824000|    0.012012|
|         696|   -6.553718|   -9.008566|    0.824000|    0.012012|
|         697|   -6.556961|   -9.010611|    0.824000|    0.012012|
|         698|   -6.560606|   -9.013404|    0.824000|    0.012012|
|         699|   -6.564650|   -9.016968|    0.824000|    0.012012|
|         700|   -6.569083|   -9.021309|    0.824000|    0.012012|
|         701|   -6.573892|   -9.026415|    0.823999|    0.012012|
|         702|   -6.579059|   -9.032256|    0.823999|    0.012012|
|         703|   -6.584561|   -9.038780|    0.823999|    0.012012|
|         704|   -6.590372|   -9.045915|    0.823999|    0.012012|
|         705|   -6.596459|   -9.053566|    0.823999|    0.012012|
|         706|   -6.602788|   -9.061615|    0.823999|    0.012012|
|         707|   -6.609318|   -9.069921|    0.823999|    0.012012|
|         708|   -6.616006|   -9.078320|    0.823998|    0.012012|
|         709|   -6.622803|   -9.086626|    0.823998|    0.012012|
|         710|   -6.629660|   -9.094641|    0.823998|    0.012012|
|         711|   -6.636523|   -9.102152|    0.823998|    0.012012|
|         712|   -6.643335|   -9.108951|    0.823998|    0.012012|
|         713|   -6.650041|   -9.114840|    0.823998|    0.012012|
|         714|   -6.656583|   -9.119643|    0.823997|    0.012012|
|         715|   -6.662905|   -9.123222|    0.823997|    0.012012|
|         716|   -6.668953|   -9.125486|    0.823997|    0.012012|
|         717|   -6.674676|   -9.126401|    0.823997|    0.012012|
|         718|   -6.680030|   -9.125990|    0.823997|    0.012012|
|         719|   -6.684974|   -9.124330|    0.823997|    0.012012|
|         720|   -6.689478|   -9.121543|    0.823997|    0.012012|
|         721|   -6.693517|   -9.117790|    0.823997|    0.012012|
|         722|   -6.697077|   -9.113251|    0.823997|    0.012012|
|         723|   -6.700155|   -9.108119|    0.823997|    0.012012|
|         724|   -6.702755|   -9.102583|    0.823996|    0.012012|
|         725|   -6.704891|   -9.096827|    0.823996|    0.012012|
|         726|   -6.706586|   -9.091015|    0.823996|    0.012012|
|         727|   -6.707870|   -9.085295|    0.823996|    0.012012|
|         728|   -6.708781|   -9.079793|    0.823996|    0.012012|
|         729|   -6.709362|   -9.074614|    0.823996|    0.012012|
|         730|   -6.709658|   -9.069842|    0.823996|    0.012012|
|         731|   -6.709718|   -9.065545|    0.823996|    0.012012|
|         732|   -6.709595|   -9.061770|    0.823996|    0.012012|
|         733|   -6.709337|   -9.058551|    0.823996|    0.012011|
|         734|   -6.708995|   -9.055909|    0.823996|    0.012011|
|         735|   -6.708618|   -9.053852|    0.823996|    0.012011|
|         736|   -6.708252|   -9.052378|    0.823996|    0.012011|
|         737|   -6.707938|   -9.051477|    0.823996|    0.012011|
|         738|   -6.707719|   -9.051131|    0.823996|    0.012011|
|         739|   -6.707628|   -9.051317|    0.823996|    0.012011|
|         740|   -6.707699|   -9.052004|    0.823996|    0.012011|
|         741|   -6.707960|   -9.053160|    0.823996|    0.012011|
|         742|   -6.708435|   -9.054748|    0.823996|    0.012011|
|         743|   -6.709145|   -9.056730|    0.823996|    0.012011|
|         744|   -6.710105|   -9.059067|    0.823996|    0.012011|
|         745|   -6.711328|   -9.061717|    0.823996|    0.012011|
|         746|   -6.712823|   -9.064644|    0.823996|    0.012011|
|         747|   -6.714593|   -9.067808|    0.823997|    0.012011|
|         748|   -6.716641|   -9.071174|    0.823997|    0.012011|
|         749|   -6.718962|   -9.074708|    0.823997|    0.012011|
|         750|   -6.721551|   -9.078381|    0.823997|    0.012011|
|         751|   -6.724396|   -9.082166|    0.823997|    0.012011|
|         752|   -6.727485|   -9.086040|    0.823997|    0.012011|
|         753|   -6.730799|   -9.089983|    0.823997|    0.012011|
|         754|   -6.734317|   -9.093980|    0.823997|    0.012011|
|         755|   -6.738016|   -9.098017|    0.823997|    0.012011|
|         756|   -6.741866|   -9.102085|    0.823997|    0.012011|
|         757|   -6.745838|   -9.106173|    0.823997|    0.012011|
|         758|   -6.749897|   -9.110276|    0.823997|    0.012011|
|         759|   -6.754007|   -9.114387|    0.823997|    0.012011|
|         760|   -6.758129|   -9.118499|    0.823997|    0.012011|
|         761|   -6.762223|   -9.122607|    0.823997|    0.012011|
|         762|   -6.766248|   -9.126704|    0.823997|    0.012011|
|         763|   -6.770163|   -9.130783|    0.823997|    0.012011|
|         764|   -6.773926|   -9.134836|    0.823997|    0.012011|
|         765|   -6.777499|   -9.138855|    0.823998|    0.012011|
|         766|   -6.780845|   -9.142832|    0.823998|    0.012011|
|         767|   -6.783930|   -9.146760|    0.823998|    0.012011|
|         768|   -6.786726|   -9.150632|    0.823998|    0.012011|
|         769|   -6.789208|   -9.154442|    0.823998|    0.012011|
|         770|   -6.791360|   -9.158184|    0.823998|    0.012011|
|         771|   -6.793169|   -9.161855|    0.823998|    0.012011|
|         772|   -6.794631|   -9.165454|    0.823998|    0.012011|
|         773|   -6.795750|   -9.168981|    0.823998|    0.012011|
|         774|   -6.796534|   -9.172434|    0.823998|    0.012011|
|         775|   -6.796999|   -9.175817|    0.823998|    0.012011|
|         776|   -6.797169|   -9.179128|    0.823998|    0.012011|
|         777|   -6.797069|   -9.182369|    0.823998|    0.012011|
|         778|   -6.796732|   -9.185538|    0.823998|    0.012011|
|         779|   -6.796192|   -9.188630|    0.823998|    0.012011|
|         780|   -6.795488|   -9.191638|    0.823998|    0.012011|
|         781|   -6.794659|   -9.194552|    0.823998|    0.012011|
|         782|   -6.793745|   -9.197355|    0.823998|    0.012011|
|         783|   -6.792785|   -9.200029|    0.823998|    0.012011|
|         784|   -6.791818|   -9.202553|    0.823998|    0.012011|
|         785|   -6.790883|   -9.204902|    0.823998|    0.012011|
|         786|   -6.790015|   -9.207049|    0.823998|    0.012011|
|         787|   -6.789246|   -9.208968|    0.823999|    0.012011|
|         788|   -6.788608|   -9.210637|    0.823999|    0.012011|
|         789|   -6.788127|   -9.212034|    0.823999|    0.012011|
|         790|   -6.787828|   -9.213146|    0.823999|    0.012011|
|         791|   -6.787732|   -9.213967|    0.823999|    0.012011|
|         792|   -6.787858|   -9.214500|    0.823999|    0.012011|
|         793|   -6.788218|   -9.214758|    0.823999|    0.012011|
|         794|   -6.788825|   -9.214764|    0.823999|    0.012011|
|         795|   -6.789686|   -9.214552|    0.823999|    0.012011|
|         796|   -6.790804|   -9.214167|    0.823999|    0.012011|
|         797|   -6.792182|   -9.213661|    0.823999|    0.012011|
|         798|   -6.793816|   -9.213092|    0.823999|    0.012011|
|         799|   -6.795701|   -9.212524|    0.823999|    0.012012|
|         800|   -6.797827|   -9.212022|    0.823999|    0.012012|
|         801|   -6.800182|   -9.211652|    0.823999|    0.012012|
+-----------------------------------------------------------------------+
|Fixed CL Mode                           |Value                         |
+-----------------------------------------------------------------------+
|Current CL                              |0.823999                      |
|Target CL                               |0.824                         |
|Previous AOA                            |2.7809                        |
|Changed AoA by                          |6.35499e-06                   |
+-----------------------------------------------------------------------+
+----------------------------------------------------------------+
|  Inner_Iter|    rms[Rho]|     rms[nu]|          CL|          CD|
+----------------------------------------------------------------+
|         802|   -5.389880|   -9.156315|    0.823999|    0.012012|
|         803|   -5.771730|   -9.181985|    0.823999|    0.012012|
|         804|   -6.008160|   -9.190581|    0.823999|    0.012012|
|         805|   -6.082141|   -9.195886|    0.823999|    0.012012|
|         806|   -6.132896|   -9.200200|    0.823999|    0.012012|
|         807|   -6.198780|   -9.204155|    0.823999|    0.012012|
|         808|   -6.279197|   -9.208035|    0.823999|    0.012012|
|         809|   -6.361674|   -9.212042|    0.823999|    0.012012|
|         810|   -6.431702|   -9.216299|    0.823999|    0.012012|
|         811|   -6.483029|   -9.220836|    0.823998|    0.012012|
|         812|   -6.517706|   -9.225656|    0.823998|    0.012012|
|         813|   -6.539019|   -9.230783|    0.823998|    0.012012|
|         814|   -6.549932|   -9.236256|    0.823998|    0.012012|
|         815|   -6.555021|   -9.242085|    0.823998|    0.012012|
|         816|   -6.559690|   -9.248232|    0.823998|    0.012012|
|         817|   -6.567725|   -9.254639|    0.823998|    0.012012|
|         818|   -6.580108|   -9.261236|    0.823998|    0.012012|
|         819|   -6.595468|   -9.267981|    0.823998|    0.012012|
|         820|   -6.611418|   -9.274841|    0.823998|    0.012012|
|         821|   -6.626055|   -9.281791|    0.823998|    0.012012|
|         822|   -6.638831|   -9.288770|    0.823998|    0.012012|
|         823|   -6.650348|   -9.295704|    0.823998|    0.012012|
|         824|   -6.661464|   -9.302512|    0.823998|    0.012012|
|         825|   -6.672576|   -9.309091|    0.823998|    0.012012|
|         826|   -6.683459|   -9.315355|    0.823998|    0.012012|
|         827|   -6.693519|   -9.321245|    0.823998|    0.012012|
|         828|   -6.702154|   -9.326713|    0.823998|    0.012012|
|         829|   -6.708969|   -9.331719|    0.823998|    0.012012|
|         830|   -6.713853|   -9.336233|    0.823998|    0.012012|
|         831|   -6.716958|   -9.340233|    0.823998|    0.012012|
|         832|   -6.718663|   -9.343708|    0.823998|    0.012012|
|         833|   -6.719509|   -9.346648|    0.823998|    0.012012|
|         834|   -6.720098|   -9.349044|    0.823998|    0.012012|
|         835|   -6.720975|   -9.350895|    0.823998|    0.012012|
|         836|   -6.722529|   -9.352194|    0.823998|    0.012012|
|         837|   -6.724937|   -9.352941|    0.823997|    0.012012|
|         838|   -6.728171|   -9.353140|    0.823997|    0.012012|
|         839|   -6.732024|   -9.352800|    0.823997|    0.012012|
|         840|   -6.736169|   -9.351935|    0.823997|    0.012012|
|         841|   -6.740231|   -9.350570|    0.823997|    0.012012|
|         842|   -6.743872|   -9.348736|    0.823997|    0.012012|
|         843|   -6.746870|   -9.346471|    0.823997|    0.012012|
|         844|   -6.749179|   -9.343822|    0.823997|    0.012012|
|         845|   -6.750929|   -9.340839|    0.823997|    0.012012|
|         846|   -6.752388|   -9.337575|    0.823997|    0.012012|
|         847|   -6.753882|   -9.334085|    0.823997|    0.012011|
|         848|   -6.755716|   -9.330424|    0.823997|    0.012011|
|         849|   -6.758111|   -9.326648|    0.823997|    0.012011|
|         850|   -6.761175|   -9.322816|    0.823997|    0.012011|
|         851|   -6.764906|   -9.318979|    0.823997|    0.012011|
|         852|   -6.769215|   -9.315189|    0.823997|    0.012011|
|         853|   -6.773959|   -9.311514|    0.823997|    0.012011|
|         854|   -6.778983|   -9.307996|    0.823997|    0.012011|
|         855|   -6.784153|   -9.304683|    0.823997|    0.012011|
|         856|   -6.789374|   -9.301639|    0.823998|    0.012011|
|         857|   -6.794599|   -9.298923|    0.823998|    0.012011|
|         858|   -6.799824|   -9.296583|    0.823998|    0.012011|
|         859|   -6.805073|   -9.294696|    0.823998|    0.012011|
|         860|   -6.810382|   -9.293310|    0.823998|    0.012011|
|         861|   -6.815778|   -9.292480|    0.823998|    0.012011|
|         862|   -6.821275|   -9.292256|    0.823998|    0.012011|
|         863|   -6.826864|   -9.292688|    0.823998|    0.012011|
|         864|   -6.832514|   -9.293821|    0.823998|    0.012011|
|         865|   -6.838179|   -9.295694|    0.823998|    0.012011|
|         866|   -6.843802|   -9.298344|    0.823998|    0.012011|
|         867|   -6.849324|   -9.301797|    0.823998|    0.012011|
|         868|   -6.854684|   -9.306074|    0.823998|    0.012011|
|         869|   -6.859826|   -9.311181|    0.823998|    0.012011|
|         870|   -6.864699|   -9.317115|    0.823998|    0.012011|
|         871|   -6.869259|   -9.323849|    0.823998|    0.012011|
|         872|   -6.873463|   -9.331366|    0.823999|    0.012011|
|         873|   -6.877277|   -9.339585|    0.823999|    0.012011|
|         874|   -6.880668|   -9.348425|    0.823999|    0.012011|
|         875|   -6.883611|   -9.357777|    0.823999|    0.012011|
|         876|   -6.886087|   -9.367502|    0.823999|    0.012011|
|         877|   -6.888085|   -9.377430|    0.823999|    0.012011|
|         878|   -6.889603|   -9.387362|    0.823999|    0.012011|
|         879|   -6.890651|   -9.397073|    0.823999|    0.012011|
|         880|   -6.891246|   -9.406318|    0.823999|    0.012011|
|         881|   -6.891415|   -9.414846|    0.823999|    0.012011|
|         882|   -6.891194|   -9.422411|    0.823999|    0.012011|
|         883|   -6.890628|   -9.428795|    0.823999|    0.012011|
|         884|   -6.889763|   -9.433824|    0.823999|    0.012011|
|         885|   -6.888652|   -9.437385|    0.823999|    0.012011|
|         886|   -6.887351|   -9.439439|    0.823999|    0.012011|
|         887|   -6.885914|   -9.440022|    0.824000|    0.012011|
|         888|   -6.884396|   -9.439247|    0.824000|    0.012011|
|         889|   -6.882851|   -9.437285|    0.824000|    0.012011|
|         890|   -6.881329|   -9.434351|    0.824000|    0.012011|
|         891|   -6.879877|   -9.430684|    0.824000|    0.012011|
|         892|   -6.878539|   -9.426532|    0.824000|    0.012011|
|         893|   -6.877353|   -9.422132|    0.824000|    0.012011|
|         894|   -6.876354|   -9.417702|    0.824000|    0.012011|
|         895|   -6.875571|   -9.413436|    0.824000|    0.012011|
|         896|   -6.875028|   -9.409493|    0.824000|    0.012011|
|         897|   -6.874748|   -9.406005|    0.824000|    0.012011|
|         898|   -6.874745|   -9.403071|    0.824000|    0.012011|
|         899|   -6.875033|   -9.400764|    0.824000|    0.012011|
|         900|   -6.875619|   -9.399129|    0.824000|    0.012011|
|         901|   -6.876510|   -9.398189|    0.824000|    0.012011|
|         902|   -6.877707|   -9.397947|    0.824000|    0.012011|
|         903|   -6.879210|   -9.398388|    0.824000|    0.012011|
|         904|   -6.881016|   -9.399480|    0.824000|    0.012011|
|         905|   -6.883120|   -9.401179|    0.824000|    0.012011|
|         906|   -6.885513|   -9.403428|    0.824000|    0.012011|
|         907|   -6.888188|   -9.406162|    0.824000|    0.012011|
|         908|   -6.891134|   -9.409306|    0.824000|    0.012011|
|         909|   -6.894336|   -9.412782|    0.824000|    0.012011|
|         910|   -6.897782|   -9.416507|    0.823999|    0.012011|
|         911|   -6.901456|   -9.420397|    0.823999|    0.012011|
|         912|   -6.905341|   -9.424369|    0.823999|    0.012011|
|         913|   -6.909418|   -9.428346|    0.823999|    0.012011|
|         914|   -6.913669|   -9.432255|    0.823999|    0.012011|
|         915|   -6.918071|   -9.436033|    0.823999|    0.012011|
|         916|   -6.922603|   -9.439628|    0.823999|    0.012012|
|         917|   -6.927239|   -9.443000|    0.823999|    0.012012|
|         918|   -6.931956|   -9.446124|    0.823999|    0.012012|
|         919|   -6.936725|   -9.448986|    0.823999|    0.012012|
[...]
|        5298|   -6.043403|   -7.967409|    0.824238|    0.012015|
|        5299|   -6.050248|   -7.971409|    0.824238|    0.012015|
|        5300|   -6.056675|   -7.975460|    0.824238|    0.012015|
|        5301|   -6.062644|   -7.979582|    0.824239|    0.012015|
|        5302|   -6.068128|   -7.983786|    0.824239|    0.012015|
|        5303|   -6.073112|   -7.988083|    0.824239|    0.012015|
|        5304|   -6.077596|   -7.992482|    0.824239|    0.012015|
|        5305|   -6.081590|   -7.996988|    0.824239|    0.012015|
|        5306|   -6.085118|   -8.001605|    0.824239|    0.012015|
|        5307|   -6.088214|   -8.006332|    0.824239|    0.012015|
|        5308|   -6.090923|   -8.011172|    0.824239|    0.012015|
|        5309|   -6.093292|   -8.016124|    0.824239|    0.012015|
|        5310|   -6.095379|   -8.021188|    0.824240|    0.012015|
|        5311|   -6.097242|   -8.026364|    0.824240|    0.012015|
|        5312|   -6.098943|   -8.031656|    0.824240|    0.012015|
|        5313|   -6.100541|   -8.037065|    0.824240|    0.012015|
|        5314|   -6.102095|   -8.042594|    0.824240|    0.012015|
|        5315|   -6.103659|   -8.048247|    0.824240|    0.012015|
|        5316|   -6.105283|   -8.054028|    0.824240|    0.012015|
|        5317|   -6.107011|   -8.059940|    0.824240|    0.012015|
|        5318|   -6.108882|   -8.065989|    0.824241|    0.012015|
|        5319|   -6.110929|   -8.072178|    0.824241|    0.012015|
|        5320|   -6.113177|   -8.078520|    0.824241|    0.012015|
|        5321|   -6.115645|   -8.085018|    0.824241|    0.012015|
|        5322|   -6.118343|   -8.091671|    0.824241|    0.012015|
|        5323|   -6.121277|   -8.098476|    0.824241|    0.012015|
|        5324|   -6.124445|   -8.105431|    0.824242|    0.012015|
|        5325|   -6.127838|   -8.112532|    0.824242|    0.012015|
|        5326|   -6.131441|   -8.119773|    0.824242|    0.012015|
|        5327|   -6.135233|   -8.127145|    0.824242|    0.012016|
|        5328|   -6.139187|   -8.134648|    0.824242|    0.012016|
|        5329|   -6.143271|   -8.142268|    0.824242|    0.012016|
|        5330|   -6.147450|   -8.149990|    0.824243|    0.012016|
|        5331|   -6.151683|   -8.157798|    0.824243|    0.012016|
|        5332|   -6.155929|   -8.165677|    0.824243|    0.012016|
|        5333|   -6.160144|   -8.173610|    0.824243|    0.012016|
|        5334|   -6.164285|   -8.181581|    0.824243|    0.012016|
|        5335|   -6.168309|   -8.189576|    0.824243|    0.012016|
|        5336|   -6.172177|   -8.197577|    0.824244|    0.012016|
|        5337|   -6.175854|   -8.205570|    0.824244|    0.012016|
|        5338|   -6.179311|   -8.213541|    0.824244|    0.012017|
|        5339|   -6.182523|   -8.221478|    0.824244|    0.012017|
|        5340|   -6.185480|   -8.229371|    0.824244|    0.012017|
|        5341|   -6.188170|   -8.237211|    0.824244|    0.012017|
|        5342|   -6.190596|   -8.244991|    0.824244|    0.012017|
|        5343|   -6.192766|   -8.252708|    0.824245|    0.012017|
|        5344|   -6.194699|   -8.260357|    0.824245|    0.012017|
|        5345|   -6.196419|   -8.267937|    0.824245|    0.012017|
|        5346|   -6.197957|   -8.275446|    0.824245|    0.012017|
|        5347|   -6.199351|   -8.282885|    0.824245|    0.012017|
|        5348|   -6.200641|   -8.290256|    0.824245|    0.012017|
|        5349|   -6.201870|   -8.297561|    0.824245|    0.012017|
|        5350|   -6.203083|   -8.304803|    0.824245|    0.012017|
|        5351|   -6.204324|   -8.311985|    0.824245|    0.012017|
|        5352|   -6.205638|   -8.319110|    0.824245|    0.012017|
|        5353|   -6.207065|   -8.326181|    0.824245|    0.012017|
|        5354|   -6.208645|   -8.333201|    0.824246|    0.012017|
|        5355|   -6.210414|   -8.340172|    0.824246|    0.012017|
|        5356|   -6.212402|   -8.347094|    0.824246|    0.012018|
|        5357|   -6.214637|   -8.353968|    0.824246|    0.012018|
|        5358|   -6.217142|   -8.360791|    0.824246|    0.012018|
|        5359|   -6.219935|   -8.367560|    0.824246|    0.012018|
|        5360|   -6.223029|   -8.374269|    0.824246|    0.012018|
|        5361|   -6.226433|   -8.380914|    0.824246|    0.012018|
|        5362|   -6.230151|   -8.387487|    0.824246|    0.012018|
|        5363|   -6.234180|   -8.393978|    0.824246|    0.012018|
|        5364|   -6.238514|   -8.400381|    0.824246|    0.012018|
|        5365|   -6.243141|   -8.406688|    0.824246|    0.012018|
|        5366|   -6.248044|   -8.412892|    0.824246|    0.012018|
|        5367|   -6.253202|   -8.418982|    0.824246|    0.012017|
|        5368|   -6.258588|   -8.424948|    0.824246|    0.012017|
|        5369|   -6.264171|   -8.430780|    0.824246|    0.012017|
|        5370|   -6.269916|   -8.436465|    0.824246|    0.012017|
|        5371|   -6.275782|   -8.441991|    0.824246|    0.012017|
|        5372|   -6.281728|   -8.447350|    0.824246|    0.012017|
|        5373|   -6.287707|   -8.452534|    0.824246|    0.012017|
|        5374|   -6.293671|   -8.457539|    0.824246|    0.012017|
|        5375|   -6.299570|   -8.462370|    0.824246|    0.012017|
|        5376|   -6.305354|   -8.467030|    0.824246|    0.012017|
|        5377|   -6.310973|   -8.471520|    0.824246|    0.012017|
|        5378|   -6.316381|   -8.475846|    0.824246|    0.012017|
|        5379|   -6.321533|   -8.480015|    0.824246|    0.012017|
|        5380|   -6.326389|   -8.484033|    0.824246|    0.012017|
|        5381|   -6.330916|   -8.487909|    0.824246|    0.012017|
|        5382|   -6.335086|   -8.491655|    0.824246|    0.012017|
|        5383|   -6.338879|   -8.495284|    0.824246|    0.012017|
|        5384|   -6.342280|   -8.498809|    0.824246|    0.012016|
|        5385|   -6.345286|   -8.502246|    0.824246|    0.012016|
|        5386|   -6.347898|   -8.505610|    0.824246|    0.012016|
|        5387|   -6.350124|   -8.508917|    0.824246|    0.012016|
|        5388|   -6.351981|   -8.512181|    0.824246|    0.012016|
|        5389|   -6.353487|   -8.515418|    0.824246|    0.012016|
|        5390|   -6.354667|   -8.518639|    0.824246|    0.012016|
|        5391|   -6.355548|   -8.521856|    0.824246|    0.012016|
|        5392|   -6.356157|   -8.525076|    0.824246|    0.012016|
|        5393|   -6.356525|   -8.528305|    0.824247|    0.012016|
|        5394|   -6.356681|   -8.531548|    0.824247|    0.012015|
|        5395|   -6.356651|   -8.534804|    0.824247|    0.012015|
|        5396|   -6.356462|   -8.538073|    0.824247|    0.012015|
|        5397|   -6.356137|   -8.541350|    0.824247|    0.012015|
|        5398|   -6.355698|   -8.544629|    0.824247|    0.012015|
|        5399|   -6.355163|   -8.547901|    0.824247|    0.012015|
|        5400|   -6.354547|   -8.551155|    0.824248|    0.012015|
|        5401|   -6.353864|   -8.554381|    0.824248|    0.012015|
|        5402|   -6.353125|   -8.557567|    0.824248|    0.012015|
|        5403|   -6.352338|   -8.560700|    0.824248|    0.012015|
|        5404|   -6.351510|   -8.563768|    0.824248|    0.012015|
|        5405|   -6.350645|   -8.566760|    0.824248|    0.012014|
|        5406|   -6.349749|   -8.569667|    0.824249|    0.012014|
|        5407|   -6.348823|   -8.572480|    0.824249|    0.012014|
|        5408|   -6.347871|   -8.575193|    0.824249|    0.012014|
|        5409|   -6.346894|   -8.577800|    0.824249|    0.012014|
|        5410|   -6.345894|   -8.580299|    0.824249|    0.012014|
|        5411|   -6.344874|   -8.582689|    0.824249|    0.012014|
|        5412|   -6.343836|   -8.584968|    0.824250|    0.012014|
|        5413|   -6.342782|   -8.587140|    0.824250|    0.012014|
|        5414|   -6.341715|   -8.589205|    0.824250|    0.012014|
|        5415|   -6.340640|   -8.591164|    0.824250|    0.012014|
|        5416|   -6.339561|   -8.593015|    0.824250|    0.012014|
|        5417|   -6.338482|   -8.594762|    0.824250|    0.012014|
|        5418|   -6.337409|   -8.596410|    0.824251|    0.012013|
|        5419|   -6.336349|   -8.597959|    0.824251|    0.012013|
|        5420|   -6.335308|   -8.599412|    0.824251|    0.012013|
|        5421|   -6.334296|   -8.600766|    0.824251|    0.012013|
|        5422|   -6.333322|   -8.602022|    0.824251|    0.012013|
|        5423|   -6.332394|   -8.603180|    0.824251|    0.012013|
|        5424|   -6.331523|   -8.604238|    0.824251|    0.012013|
|        5425|   -6.330721|   -8.605191|    0.824252|    0.012013|
|        5426|   -6.329998|   -8.606033|    0.824252|    0.012013|
|        5427|   -6.329367|   -8.606757|    0.824252|    0.012013|
|        5428|   -6.328841|   -8.607355|    0.824252|    0.012013|
|        5429|   -6.328434|   -8.607822|    0.824252|    0.012013|
|        5430|   -6.328160|   -8.608152|    0.824252|    0.012013|
|        5431|   -6.328033|   -8.608342|    0.824252|    0.012013|
|        5432|   -6.328067|   -8.608392|    0.824252|    0.012013|
|        5433|   -6.328277|   -8.608304|    0.824252|    0.012013|
|        5434|   -6.328677|   -8.608083|    0.824252|    0.012013|
|        5435|   -6.329281|   -8.607734|    0.824253|    0.012013|
|        5436|   -6.330101|   -8.607268|    0.824253|    0.012013|
|        5437|   -6.331151|   -8.606694|    0.824253|    0.012013|
|        5438|   -6.332441|   -8.606028|    0.824253|    0.012013|
|        5439|   -6.333982|   -8.605285|    0.824253|    0.012013|
|        5440|   -6.335782|   -8.604482|    0.824253|    0.012013|
|        5441|   -6.337848|   -8.603636|    0.824253|    0.012013|
|        5442|   -6.340185|   -8.602765|    0.824253|    0.012014|
|        5443|   -6.342795|   -8.601887|    0.824253|    0.012014|
|        5444|   -6.345679|   -8.601018|    0.824253|    0.012014|
|        5445|   -6.348834|   -8.600174|    0.824253|    0.012014|
|        5446|   -6.352257|   -8.599369|    0.824253|    0.012014|
|        5447|   -6.355937|   -8.598617|    0.824253|    0.012014|
|        5448|   -6.359863|   -8.597929|    0.824253|    0.012014|
|        5449|   -6.364020|   -8.597312|    0.824253|    0.012014|
|        5450|   -6.368391|   -8.596776|    0.824253|    0.012014|
|        5451|   -6.372952|   -8.596324|    0.824253|    0.012014|
|        5452|   -6.377679|   -8.595961|    0.824253|    0.012014|
|        5453|   -6.382542|   -8.595688|    0.824253|    0.012014|
|        5454|   -6.387509|   -8.595505|    0.824253|    0.012014|
|        5455|   -6.392544|   -8.595412|    0.824253|    0.012014|
|        5456|   -6.397607|   -8.595406|    0.824253|    0.012015|
|        5457|   -6.402659|   -8.595484|    0.824253|    0.012015|
|        5458|   -6.407655|   -8.595643|    0.824253|    0.012015|
|        5459|   -6.412550|   -8.595878|    0.824252|    0.012015|
|        5460|   -6.417300|   -8.596184|    0.824252|    0.012015|
|        5461|   -6.421860|   -8.596557|    0.824252|    0.012015|
|        5462|   -6.426186|   -8.596991|    0.824252|    0.012015|
|        5463|   -6.430237|   -8.597481|    0.824252|    0.012015|
|        5464|   -6.433975|   -8.598022|    0.824252|    0.012015|
|        5465|   -6.437368|   -8.598608|    0.824252|    0.012015|
|        5466|   -6.440387|   -8.599235|    0.824252|    0.012015|
|        5467|   -6.443012|   -8.599899|    0.824252|    0.012015|
|        5468|   -6.445229|   -8.600594|    0.824252|    0.012015|
|        5469|   -6.447030|   -8.601317|    0.824251|    0.012016|
|        5470|   -6.448416|   -8.602064|    0.824251|    0.012016|
|        5471|   -6.449395|   -8.602831|    0.824251|    0.012016|
|        5472|   -6.449981|   -8.603615|    0.824251|    0.012016|
|        5473|   -6.450196|   -8.604413|    0.824251|    0.012016|
|        5474|   -6.450067|   -8.605223|    0.824251|    0.012016|
|        5475|   -6.449626|   -8.606041|    0.824251|    0.012016|
|        5476|   -6.448906|   -8.606865|    0.824250|    0.012016|
|        5477|   -6.447947|   -8.607693|    0.824250|    0.012016|
|        5478|   -6.446788|   -8.608522|    0.824250|    0.012016|
|        5479|   -6.445468|   -8.609350|    0.824250|    0.012016|
|        5480|   -6.444028|   -8.610177|    0.824250|    0.012016|
|        5481|   -6.442508|   -8.611001|    0.824250|    0.012016|
|        5482|   -6.440946|   -8.611820|    0.824250|    0.012016|
|        5483|   -6.439377|   -8.612635|    0.824249|    0.012016|
|        5484|   -6.437835|   -8.613445|    0.824249|    0.012016|
|        5485|   -6.436352|   -8.614251|    0.824249|    0.012016|
|        5486|   -6.434955|   -8.615054|    0.824249|    0.012016|
|        5487|   -6.433672|   -8.615854|    0.824249|    0.012016|
|        5488|   -6.432525|   -8.616654|    0.824249|    0.012016|
|        5489|   -6.431533|   -8.617457|    0.824249|    0.012016|
|        5490|   -6.430715|   -8.618264|    0.824248|    0.012016|
|        5491|   -6.430086|   -8.619080|    0.824248|    0.012016|
|        5492|   -6.429658|   -8.619908|    0.824248|    0.012016|
|        5493|   -6.429441|   -8.620753|    0.824248|    0.012016|
|        5494|   -6.429444|   -8.621619|    0.824248|    0.012016|
|        5495|   -6.429672|   -8.622513|    0.824248|    0.012016|
|        5496|   -6.430129|   -8.623439|    0.824248|    0.012016|
|        5497|   -6.430819|   -8.624404|    0.824248|    0.012016|
|        5498|   -6.431741|   -8.625412|    0.824248|    0.012016|
|        5499|   -6.432897|   -8.626471|    0.824248|    0.012001|
+-----------------------------------------------------------------------+
|Fixed CL Mode (Finite Difference)       |Value                         |
+-----------------------------------------------------------------------+
|Delta CL / Delta AoA                    |0.247378                      |
|Delta CD / Delta CL                     |0.0184881                     |
|Delta CMz / Delta CL                    |0.0108144                     |
+-----------------------------------------------------------------------+
Writing Flow Meta-Data file: flow.meta

----------------------------- Solver Exit -------------------------------

Maximum number of iterations reached (ITER = 5500) before convergence.
+-----------------------------------------------------------------------+
|      Convergence Field     |     Value    |   Criterion  |  Converged |
+-----------------------------------------------------------------------+
|                    rms[Rho]|       -6.4329|         < -12|          No|
+-----------------------------------------------------------------------+
-------------------------------------------------------------------------

--------------------------- Finalizing Solver ---------------------------
Deleted CNumerics container.
Deleted CIntegration container.
Deleted CSolver container.
Deleted CIteration container.
Deleted CInterface container.
Deleted CGeometry container.
Deleted CFreeFormDefBox class.
Deleted CSurfaceMovement class.
Deleted CVolumetricMovement class.
Deleted CConfig container.
Deleted nInst container.
Deleted COutput class.
-------------------------------------------------------------------------

------------------------- Exit Success (SU2_CFD) ------------------------


-------------------------------------------------------------------------
|    ___ _   _ ___                                                      |
|   / __| | | |_  )   Release 8.0.0 "Harrier"                           |
|   \__ \ |_| |/ /                                                      |
|   |___/\___//___|   Suite (Solution Exporting Code)                   |
|                                                                       |
-------------------------------------------------------------------------
| SU2 Project Website: https://su2code.github.io                        |
|                                                                       |
| The SU2 Project is maintained by the SU2 Foundation                   |
| (http://su2foundation.org)                                            |
-------------------------------------------------------------------------
| Copyright 2012-2023, SU2 Contributors                                 |
|                                                                       |
| SU2 is free software; you can redistribute it and/or                  |
| modify it under the terms of the GNU Lesser General Public            |
| License as published by the Free Software Foundation; either          |
| version 2.1 of the License, or (at your option) any later version.    |
|                                                                       |
| SU2 is distributed in the hope that it will be useful,                |
| but WITHOUT ANY WARRANTY; without even the implied warranty of        |
| MERCHANTABILITY or FITNESS FOR A PARTICULAR PURPOSE. See the GNU      |
| Lesser General Public License for more details.                       |
|                                                                       |
| You should have received a copy of the GNU Lesser General Public      |
| License along with SU2. If not, see <http://www.gnu.org/licenses/>.   |
-------------------------------------------------------------------------

----------------- Physical Case Definition ( Zone 0 ) -------------------
Input mesh file name: mesh_RAE2822_turb_deform.su2

-------------------- Output Information ( Zone 0 ) ----------------------
The tabular file format is CSV (.csv).
Flow variables file name: flow.

------------- Config File Boundary Information ( Zone 0 ) ---------------
+-----------------------------------------------------------------------+
|                        Marker Type|                        Marker Name|
+-----------------------------------------------------------------------+
|                          Far-field|                           FARFIELD|
+-----------------------------------------------------------------------+
|                     Heat flux wall|                            AIRFOIL|
+-----------------------------------------------------------------------+
Two dimensional problem.
13937 grid points before partitioning.
22842 volume elements before partitioning.
2 surface markers.
192 boundary elements in index 0 (Marker = AIRFOIL).
40 boundary elements in index 1 (Marker = FARFIELD).
Executing the partitioning functions.
Building the graph adjacency structure.
Calling ParMETIS... graph partitioning complete (831 edge cuts).
Distributing ParMETIS coloring.
Rebalancing vertices.
Rebalancing volume element connectivity.
Rebalancing markers and surface elements.
14875 vertices including ghost points. 
23674 interior elements including halo cells. 
18780 triangles.
4894 quadrilaterals.
Establishing MPI communication patterns.
Identify vertices.
Storing a mapping from global to local point index.

------------------------- Solution Postprocessing -----------------------
Reading and storing the solution from restart_flow.
Volume output fields: COORDINATES, SOLUTION
  Info: Ignoring the following screen output fields:
  RMS_DENSITY, RMS_NU_TILDE, LIFT, DRAG
Screen output fields: INNER_ITER
  Info: Ignoring the following history output groups:
  RMS_RES, AERO_COEFF
History output group(s): ITER
Warning: No (valid) fields chosen for convergence monitoring. Convergence monitoring inactive.
Warning: No (valid) fields chosen for time convergence monitoring. Time convergence monitoring inactive.
|Paraview                           |flow.vtu                           |
|Paraview surface                   |surface_flow.vtu                   |
|CSV file                           |surface_flow.csv                   |

------------------------- Finalize Solver -------------------------
Deleted CGeometry container.
Deleted CSolver class.
Deleted CConfig container.
Deleted COutput class.

Completed in 0.016694 seconds on 6 cores.

------------------------- Exit Success (SU2_SOL) ------------------------

