
-------------------------------------------------------------------------
|    ___ _   _ ___                                                      |
|   / __| | | |_  )   Release 8.0.0 "Harrier"                           |
|   \__ \ |_| |/ /                                                      |
|   |___/\___//___|   Suite (Computational Fluid Dynamics Code)         |
|                                                                       |
-------------------------------------------------------------------------
| SU2 Project Website: https://su2code.github.io                        |
|                                                                       |
| The SU2 Project is maintained by the SU2 Foundation                   |
| (http://su2foundation.org)                                            |
-------------------------------------------------------------------------
| Copyright 2012-2023, SU2 Contributors                                 |
|                                                                       |
| SU2 is free software; you can redistribute it and/or                  |
| modify it under the terms of the GNU Lesser General Public            |
| License as published by the Free Software Foundation; either          |
| version 2.1 of the License, or (at your option) any later version.    |
|                                                                       |
| SU2 is distributed in the hope that it will be useful,                |
| but WITHOUT ANY WARRANTY; without even the implied warranty of        |
| MERCHANTABILITY or FITNESS FOR A PARTICULAR PURPOSE. See the GNU      |
| Lesser General Public License for more details.                       |
|                                                                       |
| You should have received a copy of the GNU Lesser General Public      |
| License along with SU2. If not, see <http://www.gnu.org/licenses/>.   |
-------------------------------------------------------------------------

Parsing config file for zone 0

----------------- Physical Case Definition ( Zone 0 ) -------------------
Compressible RANS equations.
Turbulence model: Spalart-Allmaras-noft2
Hybrid RANS/LES: No Hybrid RANS/LES
Mach number: 0.734.
Angle of attack (AoA): 2.31 deg, and angle of sideslip (AoS): 0 deg.
Reynolds number: 6.5e+06. Reference length 1.
Fixed CL mode, target value: 0.824.
Reading and writing binary SU2 native restart files.
Read flow solution from: solution_flow.dat.
Dimensional simulation.
The reference area is 1 m^2.
The semi-span will be computed using the max y(3D) value.
The reference length is 1 m.
Reference origin for moment evaluation is (0.25, 0, 0).
Surface(s) where the force coefficients are evaluated: AIRFOIL.

Surface(s) plotted in the output file: AIRFOIL.
Surface(s) affected by the design variables: AIRFOIL.
Input mesh file name: mesh_RAE2822_turb_deform.su2

--------------- Space Numerical Integration ( Zone 0 ) ------------------
Jameson-Schmidt-Turkel scheme (2nd order in space) for the flow inviscid terms.
JST viscous coefficients (2nd & 4th): 0.5, 0.02.
The method includes a grid stretching correction (p = 0.3).
Scalar upwind solver for the turbulence model.
First order integration in space.
Average of gradients with correction (viscous flow terms).
Average of gradients with correction (viscous turbulence terms).
Gradient for viscous and source terms: inverse-distance weighted Least-Squares.

--------------- Time Numerical Integration  ( Zone 0 ) ------------------
Local time stepping (steady state simulation).
Euler implicit method for the flow equations.
FGMRES is used for solving the linear system.
Using a ILU(0) preconditioning.
Convergence criteria of the linear solver: 1e-06.
Max number of linear iterations: 10.
No CFL adaptation.
Courant-Friedrichs-Lewy number:       10
Euler implicit time integration for the turbulence model.

------------------ Convergence Criteria  ( Zone 0 ) ---------------------
Maximum number of solver subiterations: 5500.
Begin convergence monitoring at iteration 10.
Residual minimum value: 1e-12.
Cauchy series min. value: 1e-06.
Number of Cauchy elements: 100.
Begin windowed time average at iteration 0.

-------------------- Output Information ( Zone 0 ) ----------------------
File writing frequency: 
+------------------------------------+
|                     File| Frequency|
+------------------------------------+
|                  RESTART|     10000|
|                 PARAVIEW|     10000|
|         SURFACE_PARAVIEW|     10000|
|              SURFACE_CSV|     10000|
+------------------------------------+
Writing the convergence history file every 1 inner iterations.
Writing the screen convergence history every 1 inner iterations.
The tabular file format is CSV (.csv).
Convergence history file name: history_direct.
Forces breakdown file name: forces_breakdown.dat.
Surface file name: surface_flow.
Volume file name: flow.
Restart file name: restart_flow.dat.

------------- Config File Boundary Information ( Zone 0 ) ---------------
+-----------------------------------------------------------------------+
|                        Marker Type|                        Marker Name|
+-----------------------------------------------------------------------+
|                          Far-field|                           FARFIELD|
+-----------------------------------------------------------------------+
|                     Heat flux wall|                            AIRFOIL|
+-----------------------------------------------------------------------+

-------------------- Output Preprocessing ( Zone 0 ) --------------------

WARNING: SURFACE_PRESSURE_DROP can only be computed for at least 2 surfaces (outlet, inlet, ...)

Screen output fields: INNER_ITER, RMS_DENSITY, RMS_NU_TILDE, LIFT, DRAG
History output group(s): ITER, RMS_RES, AERO_COEFF
Convergence field(s): RMS_DENSITY
Warning: No (valid) fields chosen for time convergence monitoring. Time convergence monitoring inactive.
Volume output fields: COORDINATES, SOLUTION, PRIMITIVE

------------------- Geometry Preprocessing ( Zone 0 ) -------------------
Two dimensional problem.
13937 grid points before partitioning.
22842 volume elements before partitioning.
2 surface markers.
192 boundary elements in index 0 (Marker = AIRFOIL).
40 boundary elements in index 1 (Marker = FARFIELD).
Executing the partitioning functions.
Building the graph adjacency structure.
Calling ParMETIS... graph partitioning complete (831 edge cuts).
Distributing ParMETIS coloring.
Rebalancing vertices.
Rebalancing volume element connectivity.
Rebalancing markers and surface elements.
14875 vertices including ghost points. 
23674 interior elements including halo cells. 
18780 triangles.
4894 quadrilaterals.
Establishing MPI communication patterns.
Setting point connectivity.
Renumbering points (Reverse Cuthill McKee Ordering).
Recomputing point connectivity.
Setting element connectivity.
Checking the numerical grid orientation.
All volume elements are correctly orientend.
All surface elements are correctly orientend.
Identifying edges and vertices.
Setting the control volume structure.
Area of the computational grid: 32209.9.
Searching for the closest normal neighbors to the surfaces.
Storing a mapping from global to local point index.
Compute the surface curvature.
Max K: 175.015. Mean K: 7.85377. Standard deviation K: 24.0906.
Checking for periodicity.
Computing mesh quality statistics for the dual control volumes.
+--------------------------------------------------------------+
|           Mesh Quality Metric|        Minimum|        Maximum|
+--------------------------------------------------------------+
|    Orthogonality Angle (deg.)|        75.1246|        89.9991|
|     CV Face Area Aspect Ratio|         1.0039|         3358.5|
|           CV Sub-Volume Ratio|        1.00046|        1215.26|
+--------------------------------------------------------------+
Finding max control volume width.
Communicating number of neighbors.
Wetted area = 2.02184 m.
Area projection in the x-plane = 0.124859 m, y-plane = 0.995873 m.
Max. coordinate in the x-direction = 1 m, y-direction = 0.0620532 m.
Min. coordinate in the x-direction = 0 m, y-direction = -0.0599478 m.
Computing wall distances.

-------------------- Solver Preprocessing ( Zone 0 ) --------------------
WARNING: AoA in the solution file (2.78896 deg.) +
         AoA offset in mesh file (0 deg.) = 2.78896 deg.
WARNING: SU2 will use the dCD/dCL provided in the direct solution file: 0.0173966.
WARNING: SU2 will use the dCMz/dCL provided in the direct solution file: 0.00104411.
Viscous flow: Computing pressure using the ideal gas law
based on the free-stream temperature and a density computed
from the Reynolds number.
Force coefficients computed using free-stream values.

-- Models:
+------------------------------------------------------------------------------+
|          Viscosity Model|        Conductivity Model|              Fluid Model|
+------------------------------------------------------------------------------+
|               SUTHERLAND|          CONSTANT_PRANDTL|             STANDARD_AIR|
+------------------------------------------------------------------------------+
-- Fluid properties:
+------------------------------------------------------------------------------+
|                  Name|    Dim. value|    Ref. value|      Unit|Non-dim. value|
+------------------------------------------------------------------------------+
|        Ref. Viscosity|     1.716e-05|             1|   N.s/m^2|     1.716e-05|
|      Sutherland Temp.|        273.15|             1|         K|        273.15|
|     Sutherland Const.|         110.4|             1|         K|         110.4|
+------------------------------------------------------------------------------+
|        Prandtl (Lam.)|             -|             -|         -|          0.71|
|       Prandtl (Turb.)|             -|             -|         -|           0.9|
+------------------------------------------------------------------------------+
|          Gas Constant|       287.058|             1|  N.m/kg.K|       287.058|
|      Spec. Heat Ratio|             -|             -|         -|           1.4|
+------------------------------------------------------------------------------+
-- Initial and free-stream conditions:
+------------------------------------------------------------------------------+
|                  Name|    Dim. value|    Ref. value|      Unit|Non-dim. value|
+------------------------------------------------------------------------------+
|       Static Pressure|         38515|             1|        Pa|         38515|
|               Density|      0.465631|             1|    kg/m^3|      0.465631|
|           Temperature|        288.15|             1|         K|        288.15|
|          Total Energy|        237984|             1|   m^2/s^2|        237984|
|            Velocity-X|       249.482|             1|       m/s|       249.482|
|            Velocity-Y|       12.1535|             1|       m/s|       12.1535|
|    Velocity Magnitude|       249.778|             1|       m/s|       249.778|
+------------------------------------------------------------------------------+
|             Viscosity|    1.7893e-05|             1|   N.s/m^2|    1.7893e-05|
|          Conductivity|             -|             1|   W/m^2.K|             -|
|     Turb. Kin. Energy|       233.959|             1|   m^2/s^2|       233.959|
|     Spec. Dissipation|        608834|             1|       1/s|        608834|
+------------------------------------------------------------------------------+
|           Mach Number|             -|             -|         -|         0.734|
|       Reynolds Number|             -|             -|         -|       6.5e+06|
+------------------------------------------------------------------------------+
Initialize Jacobian structure (Navier-Stokes). MG level: 0.
Initialize Jacobian structure (SA model).

------------------- Numerics Preprocessing ( Zone 0 ) -------------------

----------------- Integration Preprocessing ( Zone 0 ) ------------------

------------------- Iteration Preprocessing ( Zone 0 ) ------------------
Euler/Navier-Stokes/RANS fluid iteration.

------------------------------ Begin Solver -----------------------------

Simulation Run using the Single-zone Driver
WARNING: SU2 was not compiled for an AVX-capable architecture. Performance could be better,
         see https://su2code.github.io/docs_v7/Build-SU2-Linux-MacOS/#compiler-optimizations
+----------------------------------------------------------------+
|  Inner_Iter|    rms[Rho]|     rms[nu]|          CL|          CD|
+----------------------------------------------------------------+
|           0|   -5.522178|   -6.810016|    0.824008|    0.011987|
|           1|   -5.576020|   -6.907666|    0.824009|    0.011985|
|           2|   -5.632901|   -7.023304|    0.824007|    0.011985|
|           3|   -5.677937|   -7.148452|    0.824004|    0.011986|
|           4|   -5.710931|   -7.268538|    0.824000|    0.011986|
|           5|   -5.732387|   -7.364823|    0.823998|    0.011986|
|           6|   -5.743689|   -7.426346|    0.823996|    0.011986|
|           7|   -5.747506|   -7.455498|    0.823996|    0.011986|
|           8|   -5.746317|   -7.459092|    0.823996|    0.011985|
|           9|   -5.741481|   -7.444016|    0.823998|    0.011985|
|          10|   -5.733506|   -7.418899|    0.824000|    0.011985|
|          11|   -5.722759|   -7.392695|    0.824003|    0.011986|
|          12|   -5.709885|   -7.372005|    0.824006|    0.011987|
|          13|   -5.695802|   -7.360395|    0.824010|    0.011988|
|          14|   -5.681545|   -7.358866|    0.824014|    0.011989|
|          15|   -5.668155|   -7.366146|    0.824017|    0.011991|
|          16|   -5.656564|   -7.378528|    0.824020|    0.011993|
|          17|   -5.647464|   -7.389869|    0.824022|    0.011995|
|          18|   -5.641162|   -7.393153|    0.824024|    0.011997|
|          19|   -5.637503|   -7.384219|    0.824025|    0.011999|
|          20|   -5.635898|   -7.364658|    0.824025|    0.012001|
|          21|   -5.635481|   -7.340320|    0.824024|    0.012002|
|          22|   -5.635351|   -7.317414|    0.824023|    0.012004|
|          23|   -5.634812|   -7.300180|    0.824021|    0.012005|
|          24|   -5.633514|   -7.290679|    0.824019|    0.012006|
|          25|   -5.631450|   -7.289377|    0.824016|    0.012007|
|          26|   -5.628827|   -7.295694|    0.824014|    0.012008|
|          27|   -5.625920|   -7.308336|    0.824012|    0.012009|
|          28|   -5.622956|   -7.325456|    0.824009|    0.012009|
|          29|   -5.620074|   -7.344792|    0.824007|    0.012010|
|          30|   -5.617329|   -7.363866|    0.824005|    0.012010|
|          31|   -5.614722|   -7.380351|    0.824003|    0.012010|
|          32|   -5.612228|   -7.392529|    0.824001|    0.012010|
|          33|   -5.609810|   -7.399653|    0.824000|    0.012010|
|          34|   -5.607424|   -7.401983|    0.823998|    0.012011|
|          35|   -5.605030|   -7.400481|    0.823997|    0.012011|
|          36|   -5.602591|   -7.396352|    0.823995|    0.012011|
|          37|   -5.600080|   -7.390673|    0.823993|    0.012011|
|          38|   -5.597484|   -7.384218|    0.823992|    0.012011|
|          39|   -5.594810|   -7.377444|    0.823990|    0.012011|
|          40|   -5.592077|   -7.370581|    0.823988|    0.012011|
|          41|   -5.589318|   -7.363736|    0.823986|    0.012011|
|          42|   -5.586568|   -7.356995|    0.823984|    0.012011|
|          43|   -5.583859|   -7.350494|    0.823982|    0.012010|
|          44|   -5.581215|   -7.344437|    0.823980|    0.012010|
|          45|   -5.578644|   -7.339091|    0.823977|    0.012010|
|          46|   -5.576138|   -7.334747|    0.823975|    0.012010|
|          47|   -5.573674|   -7.331681|    0.823972|    0.012010|
|          48|   -5.571219|   -7.330107|    0.823970|    0.012010|
|          49|   -5.568733|   -7.330149|    0.823968|    0.012010|
|          50|   -5.566181|   -7.331827|    0.823965|    0.012010|
|          51|   -5.563538|   -7.335046|    0.823963|    0.012009|
|          52|   -5.560798|   -7.339611|    0.823962|    0.012009|
|          53|   -5.557975|   -7.345244|    0.823960|    0.012009|
|          54|   -5.555105|   -7.351609|    0.823958|    0.012009|
|          55|   -5.552242|   -7.358353|    0.823957|    0.012008|
|          56|   -5.549454|   -7.365137|    0.823956|    0.012008|
|          57|   -5.546812|   -7.371670|    0.823956|    0.012008|
|          58|   -5.544381|   -7.377731|    0.823955|    0.012008|
|          59|   -5.542215|   -7.383179|    0.823955|    0.012007|
|          60|   -5.540352|   -7.387954|    0.823955|    0.012007|
|          61|   -5.538807|   -7.392061|    0.823955|    0.012007|
|          62|   -5.537577|   -7.395560|    0.823955|    0.012006|
|          63|   -5.536640|   -7.398547|    0.823955|    0.012006|
|          64|   -5.535962|   -7.401140|    0.823955|    0.012006|
|          65|   -5.535507|   -7.403470|    0.823956|    0.012005|
|          66|   -5.535235|   -7.405672|    0.823956|    0.012005|
|          67|   -5.535119|   -7.407871|    0.823957|    0.012005|
|          68|   -5.535140|   -7.410173|    0.823957|    0.012005|
|          69|   -5.535289|   -7.412657|    0.823958|    0.012004|
|          70|   -5.535570|   -7.415364|    0.823958|    0.012004|
|          71|   -5.535993|   -7.418295|    0.823959|    0.012004|
|          72|   -5.536569|   -7.421413|    0.823959|    0.012003|
|          73|   -5.537310|   -7.424648|    0.823959|    0.012003|
|          74|   -5.538224|   -7.427913|    0.823960|    0.012003|
|          75|   -5.539312|   -7.431118|    0.823960|    0.012003|
|          76|   -5.540571|   -7.434187|    0.823961|    0.012003|
|          77|   -5.541995|   -7.437070|    0.823961|    0.012002|
|          78|   -5.543577|   -7.439756|    0.823961|    0.012002|
|          79|   -5.545309|   -7.442265|    0.823961|    0.012002|
|          80|   -5.547187|   -7.444655|    0.823962|    0.012002|
|          81|   -5.549209|   -7.447001|    0.823962|    0.012002|
|          82|   -5.551374|   -7.449392|    0.823962|    0.012002|
|          83|   -5.553682|   -7.451915|    0.823962|    0.012002|
|          84|   -5.556128|   -7.454648|    0.823962|    0.012002|
|          85|   -5.558702|   -7.457653|    0.823962|    0.012002|
|          86|   -5.561386|   -7.460972|    0.823962|    0.012002|
|          87|   -5.564156|   -7.464632|    0.823962|    0.012002|
|          88|   -5.566978|   -7.468641|    0.823962|    0.012001|
|          89|   -5.569815|   -7.472997|    0.823962|    0.012001|
|          90|   -5.572624|   -7.477687|    0.823962|    0.012001|
|          91|   -5.575368|   -7.482696|    0.823962|    0.012001|
|          92|   -5.578012|   -7.488006|    0.823962|    0.012001|
|          93|   -5.580533|   -7.493600|    0.823962|    0.012001|
|          94|   -5.582916|   -7.499467|    0.823962|    0.012001|
|          95|   -5.585164|   -7.505595|    0.823962|    0.012001|
|          96|   -5.587288|   -7.511976|    0.823963|    0.012001|
|          97|   -5.589314|   -7.518605|    0.823963|    0.012001|
|          98|   -5.591275|   -7.525475|    0.823963|    0.012002|
|          99|   -5.593214|   -7.532578|    0.823964|    0.012002|
|         100|   -5.595172|   -7.539903|    0.823964|    0.012002|
|         101|   -5.597192|   -7.547433|    0.823964|    0.012005|
+-----------------------------------------------------------------------+
|Fixed CL Mode                           |Value                         |
+-----------------------------------------------------------------------+
|Current CL                              |0.823964                      |
|Target CL                               |0.824                         |
|Previous AOA                            |2.78896                       |
|Changed AoA by                          |0.000180284                   |
+-----------------------------------------------------------------------+
+----------------------------------------------------------------+
|  Inner_Iter|    rms[Rho]|     rms[nu]|          CL|          CD|
+----------------------------------------------------------------+
|         102|   -3.937408|   -7.533427|    0.823965|    0.012005|
|         103|   -4.322891|   -7.551931|    0.823966|    0.012005|
|         104|   -4.570609|   -7.562914|    0.823966|    0.012005|
|         105|   -4.651538|   -7.572491|    0.823967|    0.012005|
|         106|   -4.705368|   -7.581619|    0.823968|    0.012006|
|         107|   -4.774319|   -7.590491|    0.823968|    0.012006|
|         108|   -4.858624|   -7.599127|    0.823969|    0.012006|
|         109|   -4.944610|   -7.607517|    0.823970|    0.012007|
|         110|   -5.015376|   -7.615642|    0.823970|    0.012007|
|         111|   -5.063844|   -7.623470|    0.823971|    0.012007|
|         112|   -5.093672|   -7.630979|    0.823972|    0.012008|
|         113|   -5.110127|   -7.638177|    0.823972|    0.012008|
|         114|   -5.117469|   -7.645094|    0.823973|    0.012009|
|         115|   -5.120851|   -7.651749|    0.823973|    0.012009|
|         116|   -5.125691|   -7.658138|    0.823974|    0.012009|
|         117|   -5.135507|   -7.664242|    0.823974|    0.012010|
|         118|   -5.150932|   -7.670043|    0.823974|    0.012010|
|         119|   -5.170181|   -7.675538|    0.823974|    0.012011|
|         120|   -5.190375|   -7.680733|    0.823974|    0.012011|
|         121|   -5.209165|   -7.685643|    0.823974|    0.012011|
|         122|   -5.225835|   -7.690285|    0.823974|    0.012012|
|         123|   -5.241165|   -7.694674|    0.823974|    0.012012|
|         124|   -5.256387|   -7.698824|    0.823974|    0.012012|
|         125|   -5.272227|   -7.702757|    0.823974|    0.012013|
|         126|   -5.288586|   -7.706498|    0.823974|    0.012013|
|         127|   -5.304753|   -7.710079|    0.823973|    0.012013|
|         128|   -5.319794|   -7.713528|    0.823973|    0.012014|
|         129|   -5.332863|   -7.716877|    0.823973|    0.012014|
|         130|   -5.343389|   -7.720154|    0.823973|    0.012014|
|         131|   -5.351187|   -7.723387|    0.823973|    0.012014|
|         132|   -5.356511|   -7.726599|    0.823972|    0.012015|
|         133|   -5.360024|   -7.729812|    0.823972|    0.012015|
|         134|   -5.362630|   -7.733044|    0.823972|    0.012015|
|         135|   -5.365241|   -7.736304|    0.823972|    0.012016|
|         136|   -5.368576|   -7.739602|    0.823972|    0.012016|
|         137|   -5.373037|   -7.742946|    0.823972|    0.012016|
|         138|   -5.378681|   -7.746335|    0.823972|    0.012016|
|         139|   -5.385250|   -7.749766|    0.823972|    0.012017|
|         140|   -5.392244|   -7.753227|    0.823973|    0.012017|
|         141|   -5.399030|   -7.756700|    0.823973|    0.012017|
|         142|   -5.404987|   -7.760172|    0.823973|    0.012018|
|         143|   -5.409665|   -7.763626|    0.823973|    0.012018|
|         144|   -5.412913|   -7.767046|    0.823974|    0.012018|
|         145|   -5.414908|   -7.770418|    0.823974|    0.012019|
|         146|   -5.416089|   -7.773726|    0.823974|    0.012019|
|         147|   -5.417012|   -7.776960|    0.823975|    0.012019|
|         148|   -5.418200|   -7.780111|    0.823975|    0.012020|
|         149|   -5.420034|   -7.783176|    0.823976|    0.012020|
|         150|   -5.422697|   -7.786157|    0.823976|    0.012020|
|         151|   -5.426185|   -7.789060|    0.823977|    0.012021|
|         152|   -5.430340|   -7.791896|    0.823977|    0.012021|
|         153|   -5.434918|   -7.794678|    0.823978|    0.012021|
|         154|   -5.439651|   -7.797424|    0.823978|    0.012021|
|         155|   -5.444310|   -7.800158|    0.823979|    0.012022|
|         156|   -5.448741|   -7.802903|    0.823980|    0.012022|
|         157|   -5.452880|   -7.805680|    0.823980|    0.012022|
|         158|   -5.456749|   -7.808509|    0.823981|    0.012022|
|         159|   -5.460425|   -7.811407|    0.823982|    0.012022|
|         160|   -5.464012|   -7.814388|    0.823982|    0.012023|
|         161|   -5.467613|   -7.817462|    0.823983|    0.012023|
|         162|   -5.471307|   -7.820632|    0.823984|    0.012023|
|         163|   -5.475144|   -7.823898|    0.823985|    0.012023|
|         164|   -5.479141|   -7.827251|    0.823986|    0.012023|
|         165|   -5.483295|   -7.830683|    0.823987|    0.012023|
|         166|   -5.487588|   -7.834179|    0.823988|    0.012023|
|         167|   -5.491996|   -7.837718|    0.823989|    0.012023|
|         168|   -5.496498|   -7.841278|    0.823990|    0.012024|
|         169|   -5.501074|   -7.844834|    0.823991|    0.012024|
|         170|   -5.505709|   -7.848355|    0.823992|    0.012024|
|         171|   -5.510390|   -7.851812|    0.823993|    0.012024|
|         172|   -5.515104|   -7.855173|    0.823994|    0.012024|
|         173|   -5.519834|   -7.858402|    0.823995|    0.012024|
|         174|   -5.524558|   -7.861460|    0.823996|    0.012024|
|         175|   -5.529247|   -7.864303|    0.823997|    0.012024|
|         176|   -5.533867|   -7.866888|    0.823998|    0.012024|
|         177|   -5.538379|   -7.869168|    0.823999|    0.012023|
|         178|   -5.542740|   -7.871102|    0.823999|    0.012023|
|         179|   -5.546905|   -7.872645|    0.824000|    0.012023|
|         180|   -5.550828|   -7.873764|    0.824001|    0.012023|
|         181|   -5.554469|   -7.874429|    0.824001|    0.012023|
|         182|   -5.557788|   -7.874621|    0.824002|    0.012023|
|         183|   -5.560756|   -7.874339|    0.824002|    0.012023|
|         184|   -5.563353|   -7.873592|    0.824003|    0.012023|
|         185|   -5.565570|   -7.872403|    0.824003|    0.012023|
|         186|   -5.567414|   -7.870808|    0.824003|    0.012023|
|         187|   -5.568903|   -7.868848|    0.824003|    0.012022|
|         188|   -5.570072|   -7.866579|    0.824003|    0.012022|
|         189|   -5.570970|   -7.864061|    0.824003|    0.012022|
|         190|   -5.571656|   -7.861360|    0.824003|    0.012022|
|         191|   -5.572200|   -7.858544|    0.824003|    0.012022|
|         192|   -5.572679|   -7.855680|    0.824003|    0.012021|
|         193|   -5.573175|   -7.852834|    0.824002|    0.012021|
|         194|   -5.573770|   -7.850066|    0.824002|    0.012021|
|         195|   -5.574545|   -7.847426|    0.824001|    0.012021|
|         196|   -5.575578|   -7.844959|    0.824001|    0.012021|
|         197|   -5.576941|   -7.842708|    0.824000|    0.012020|
|         198|   -5.578699|   -7.840697|    0.824000|    0.012020|
|         199|   -5.580909|   -7.838942|    0.823999|    0.012020|
|         200|   -5.583616|   -7.837451|    0.823999|    0.012020|
|         201|   -5.586859|   -7.836224|    0.823998|    0.012020|
+-----------------------------------------------------------------------+
|Fixed CL Mode                           |Value                         |
+-----------------------------------------------------------------------+
|Current CL                              |0.823998                      |
|Target CL                               |0.824                         |
|Previous AOA                            |2.78914                       |
|Changed AoA by                          |5.92334e-06                   |
+-----------------------------------------------------------------------+
+----------------------------------------------------------------+
|  Inner_Iter|    rms[Rho]|     rms[nu]|          CL|          CD|
+----------------------------------------------------------------+
|         202|   -5.337477|   -7.835170|    0.823998|    0.012019|
|         203|   -5.517501|   -7.834496|    0.823997|    0.012019|
|         204|   -5.565755|   -7.834012|    0.823996|    0.012019|
|         205|   -5.580876|   -7.833713|    0.823996|    0.012019|
|         206|   -5.592881|   -7.833567|    0.823995|    0.012018|
|         207|   -5.604628|   -7.833536|    0.823995|    0.012018|
|         208|   -5.615782|   -7.833583|    0.823994|    0.012018|
|         209|   -5.626040|   -7.833668|    0.823994|    0.012018|
|         210|   -5.635539|   -7.833753|    0.823993|    0.012017|
|         211|   -5.644598|   -7.833804|    0.823993|    0.012017|
|         212|   -5.653400|   -7.833792|    0.823993|    0.012017|
|         213|   -5.661931|   -7.833694|    0.823992|    0.012017|
|         214|   -5.670094|   -7.833487|    0.823992|    0.012017|
|         215|   -5.677810|   -7.833158|    0.823992|    0.012017|
|         216|   -5.685041|   -7.832702|    0.823992|    0.012016|
|         217|   -5.691761|   -7.832110|    0.823991|    0.012016|
|         218|   -5.697927|   -7.831384|    0.823991|    0.012016|
|         219|   -5.703481|   -7.830528|    0.823991|    0.012016|
|         220|   -5.708371|   -7.829555|    0.823991|    0.012016|
|         221|   -5.712566|   -7.828480|    0.823991|    0.012016|
|         222|   -5.716075|   -7.827320|    0.823991|    0.012016|
|         223|   -5.718933|   -7.826097|    0.823992|    0.012016|
|         224|   -5.721195|   -7.824836|    0.823992|    0.012016|
|         225|   -5.722929|   -7.823561|    0.823992|    0.012016|
|         226|   -5.724219|   -7.822295|    0.823992|    0.012016|
|         227|   -5.725163|   -7.821063|    0.823993|    0.012016|
|         228|   -5.725875|   -7.819885|    0.823993|    0.012016|
|         229|   -5.726481|   -7.818781|    0.823994|    0.012016|
|         230|   -5.727109|   -7.817769|    0.823994|    0.012016|
|         231|   -5.727885|   -7.816864|    0.823995|    0.012016|
|         232|   -5.728922|   -7.816075|    0.823995|    0.012016|
|         233|   -5.730319|   -7.815403|    0.823996|    0.012016|
|         234|   -5.732159|   -7.814851|    0.823996|    0.012016|
|         235|   -5.734505|   -7.814425|    0.823997|    0.012016|
|         236|   -5.737403|   -7.814132|    0.823998|    0.012016|
|         237|   -5.740882|   -7.813972|    0.823999|    0.012016|
|         238|   -5.744956|   -7.813951|    0.823999|    0.012016|
|         239|   -5.749627|   -7.814070|    0.824000|    0.012016|
|         240|   -5.754889|   -7.814324|    0.824001|    0.012016|
|         241|   -5.760724|   -7.814710|    0.824002|    0.012017|
|         242|   -5.767112|   -7.815220|    0.824003|    0.012017|
|         243|   -5.774024|   -7.815848|    0.824003|    0.012017|
|         244|   -5.781426|   -7.816587|    0.824004|    0.012017|
|         245|   -5.789282|   -7.817423|    0.824005|    0.012017|
|         246|   -5.797545|   -7.818349|    0.824006|    0.012017|
|         247|   -5.806167|   -7.819357|    0.824007|    0.012018|
|         248|   -5.815091|   -7.820443|    0.824008|    0.012018|
|         249|   -5.824255|   -7.821602|    0.824009|    0.012018|
|         250|   -5.833589|   -7.822830|    0.824009|    0.012018|
|         251|   -5.843020|   -7.824125|    0.824010|    0.012018|
|         252|   -5.852468|   -7.825485|    0.824011|    0.012018|
|         253|   -5.861853|   -7.826914|    0.824012|    0.012018|
|         254|   -5.871095|   -7.828415|    0.824012|    0.012019|
|         255|   -5.880114|   -7.829988|    0.824013|    0.012019|
|         256|   -5.888833|   -7.831637|    0.824014|    0.012019|
|         257|   -5.897182|   -7.833365|    0.824014|    0.012019|
|         258|   -5.905096|   -7.835180|    0.824015|    0.012019|
|         259|   -5.912519|   -7.837087|    0.824015|    0.012019|
|         260|   -5.919403|   -7.839095|    0.824016|    0.012019|
|         261|   -5.925708|   -7.841210|    0.824016|    0.012020|
|         262|   -5.931406|   -7.843441|    0.824016|    0.012020|
|         263|   -5.936479|   -7.845795|    0.824017|    0.012020|
|         264|   -5.940917|   -7.848278|    0.824017|    0.012020|
|         265|   -5.944722|   -7.850895|    0.824017|    0.012020|
|         266|   -5.947904|   -7.853652|    0.824018|    0.012020|
|         267|   -5.950482|   -7.856552|    0.824018|    0.012020|
|         268|   -5.952483|   -7.859596|    0.824018|    0.012020|
|         269|   -5.953940|   -7.862785|    0.824018|    0.012020|
|         270|   -5.954891|   -7.866116|    0.824018|    0.012020|
|         271|   -5.955379|   -7.869588|    0.824018|    0.012020|
|         272|   -5.955449|   -7.873193|    0.824018|    0.012020|
|         273|   -5.955150|   -7.876928|    0.824018|    0.012020|
|         274|   -5.954528|   -7.880785|    0.824018|    0.012020|
|         275|   -5.953634|   -7.884756|    0.824018|    0.012020|
|         276|   -5.952515|   -7.888833|    0.824018|    0.012020|
|         277|   -5.951219|   -7.893010|    0.824018|    0.012020|
|         278|   -5.949789|   -7.897278|    0.824018|    0.012020|
|         279|   -5.948270|   -7.901633|    0.824018|    0.012020|
|         280|   -5.946701|   -7.906068|    0.824018|    0.012020|
|         281|   -5.945119|   -7.910580|    0.824018|    0.012020|
|         282|   -5.943559|   -7.915172|    0.824018|    0.012020|
|         283|   -5.942049|   -7.919843|    0.824018|    0.012020|
|         284|   -5.940616|   -7.924593|    0.824018|    0.012020|
|         285|   -5.939283|   -7.929424|    0.824018|    0.012020|
|         286|   -5.938067|   -7.934338|    0.824018|    0.012020|
|         287|   -5.936982|   -7.939337|    0.824018|    0.012020|
|         288|   -5.936040|   -7.944425|    0.824018|    0.012020|
|         289|   -5.935247|   -7.949605|    0.824018|    0.012020|
|         290|   -5.934608|   -7.954880|    0.824017|    0.012020|
|         291|   -5.934122|   -7.960252|    0.824017|    0.012020|
|         292|   -5.933789|   -7.965721|    0.824017|    0.012020|
|         293|   -5.933605|   -7.971286|    0.824017|    0.012019|
|         294|   -5.933564|   -7.976943|    0.824017|    0.012019|
|         295|   -5.933660|   -7.982684|    0.824017|    0.012019|
|         296|   -5.933885|   -7.988498|    0.824017|    0.012019|
|         297|   -5.934233|   -7.994374|    0.824017|    0.012019|
|         298|   -5.934695|   -8.000297|    0.824017|    0.012019|
|         299|   -5.935266|   -8.006249|    0.824017|    0.012019|
|         300|   -5.935940|   -8.012212|    0.824017|    0.012019|
|         301|   -5.936710|   -8.018166|    0.824017|    0.012017|
+-----------------------------------------------------------------------+
|Fixed CL Mode                           |Value                         |
+-----------------------------------------------------------------------+
|Current CL                              |0.824017                      |
|Target CL                               |0.824                         |
|Previous AOA                            |2.78914                       |
|Changed AoA by                          |-8.63634e-05                  |
+-----------------------------------------------------------------------+
+----------------------------------------------------------------+
|  Inner_Iter|    rms[Rho]|     rms[nu]|          CL|          CD|
+----------------------------------------------------------------+
|         302|   -4.256942|   -7.981766|    0.824017|    0.012017|
|         303|   -4.641258|   -8.007710|    0.824017|    0.012017|
|         304|   -4.885360|   -8.019583|    0.824017|    0.012017|
|         305|   -4.964312|   -8.028528|    0.824017|    0.012017|
|         306|   -5.017745|   -8.036343|    0.824017|    0.012017|
|         307|   -5.086762|   -8.043446|    0.824017|    0.012017|
|         308|   -5.171654|   -8.049971|    0.824017|    0.012017|
|         309|   -5.259415|   -8.056001|    0.824017|    0.012017|
|         310|   -5.333608|   -8.061590|    0.824017|    0.012016|
|         311|   -5.386458|   -8.066759|    0.824017|    0.012016|
|         312|   -5.420295|   -8.071532|    0.824017|    0.012016|
|         313|   -5.439466|   -8.075980|    0.824017|    0.012016|
|         314|   -5.447985|   -8.080200|    0.824018|    0.012016|
|         315|   -5.451363|   -8.084261|    0.824018|    0.012016|
|         316|   -5.455614|   -8.088195|    0.824018|    0.012016|
|         317|   -5.464708|   -8.092000|    0.824018|    0.012016|
|         318|   -5.479491|   -8.095674|    0.824018|    0.012016|
|         319|   -5.498219|   -8.099232|    0.824018|    0.012016|
|         320|   -5.517973|   -8.102697|    0.824018|    0.012015|
|         321|   -5.536353|   -8.106091|    0.824018|    0.012015|
|         322|   -5.552614|   -8.109425|    0.824018|    0.012015|
|         323|   -5.567535|   -8.112696|    0.824019|    0.012015|
|         324|   -5.582364|   -8.115896|    0.824019|    0.012015|
|         325|   -5.597849|   -8.119025|    0.824019|    0.012015|
|         326|   -5.613931|   -8.122085|    0.824019|    0.012015|
|         327|   -5.629973|   -8.125095|    0.824020|    0.012015|
|         328|   -5.645136|   -8.128082|    0.824020|    0.012015|
|         329|   -5.658678|   -8.131072|    0.824020|    0.012015|
|         330|   -5.670098|   -8.134091|    0.824020|    0.012015|
|         331|   -5.679224|   -8.137165|    0.824021|    0.012015|
|         332|   -5.686266|   -8.140318|    0.824021|    0.012015|
|         333|   -5.691805|   -8.143558|    0.824021|    0.012015|
|         334|   -5.696669|   -8.146893|    0.824022|    0.012015|
|         335|   -5.701724|   -8.150319|    0.824022|    0.012015|
|         336|   -5.707672|   -8.153826|    0.824022|    0.012015|
|         337|   -5.714928|   -8.157394|    0.824022|    0.012015|
|         338|   -5.723563|   -8.160999|    0.824023|    0.012015|
|         339|   -5.733316|   -8.164612|    0.824023|    0.012015|
|         340|   -5.743644|   -8.168203|    0.824023|    0.012015|
|         341|   -5.753821|   -8.171742|    0.824024|    0.012015|
|         342|   -5.763086|   -8.175197|    0.824024|    0.012015|
|         343|   -5.770837|   -8.178541|    0.824024|    0.012015|
|         344|   -5.776795|   -8.181750|    0.824024|    0.012015|
|         345|   -5.781086|   -8.184805|    0.824024|    0.012015|
|         346|   -5.784176|   -8.187689|    0.824025|    0.012015|
|         347|   -5.786709|   -8.190390|    0.824025|    0.012016|
|         348|   -5.789321|   -8.192898|    0.824025|    0.012016|
|         349|   -5.792490|   -8.195211|    0.824025|    0.012016|
|         350|   -5.796466|   -8.197325|    0.824025|    0.012016|
|         351|   -5.801264|   -8.199250|    0.824025|    0.012016|
|         352|   -5.806713|   -8.200993|    0.824025|    0.012016|
|         353|   -5.812529|   -8.202568|    0.824025|    0.012016|
|         354|   -5.818397|   -8.203992|    0.824025|    0.012016|
|         355|   -5.824050|   -8.205287|    0.824025|    0.012016|
|         356|   -5.829317|   -8.206482|    0.824025|    0.012016|
|         357|   -5.834146|   -8.207609|    0.824024|    0.012016|
|         358|   -5.838594|   -8.208704|    0.824024|    0.012016|
|         359|   -5.842794|   -8.209806|    0.824024|    0.012017|
|         360|   -5.846911|   -8.210953|    0.824023|    0.012017|
|         361|   -5.851104|   -8.212186|    0.824023|    0.012017|
|         362|   -5.855503|   -8.213543|    0.824023|    0.012017|
|         363|   -5.860195|   -8.215057|    0.824022|    0.012017|
|         364|   -5.865228|   -8.216757|    0.824022|    0.012017|
|         365|   -5.870618|   -8.218668|    0.824021|    0.012017|
|         366|   -5.876363|   -8.220807|    0.824021|    0.012017|
|         367|   -5.882450|   -8.223185|    0.824020|    0.012017|
|         368|   -5.888870|   -8.225805|    0.824019|    0.012017|
|         369|   -5.895614|   -8.228661|    0.824019|    0.012017|
|         370|   -5.902677|   -8.231738|    0.824018|    0.012017|
|         371|   -5.910055|   -8.235011|    0.824018|    0.012017|
|         372|   -5.917741|   -8.238446|    0.824017|    0.012017|
|         373|   -5.925720|   -8.242002|    0.824016|    0.012017|
|         374|   -5.933968|   -8.245627|    0.824016|    0.012017|
|         375|   -5.942452|   -8.249262|    0.824015|    0.012017|
|         376|   -5.951127|   -8.252844|    0.824015|    0.012017|
|         377|   -5.959940|   -8.256306|    0.824014|    0.012017|
|         378|   -5.968830|   -8.259581|    0.824014|    0.012017|
|         379|   -5.977726|   -8.262605|    0.824013|    0.012017|
|         380|   -5.986556|   -8.265319|    0.824013|    0.012017|
|         381|   -5.995241|   -8.267673|    0.824012|    0.012017|
|         382|   -6.003702|   -8.269629|    0.824012|    0.012017|
|         383|   -6.011858|   -8.271166|    0.824012|    0.012017|
|         384|   -6.019630|   -8.272275|    0.824011|    0.012017|
|         385|   -6.026944|   -8.272967|    0.824011|    0.012017|
|         386|   -6.033731|   -8.273268|    0.824011|    0.012017|
|         387|   -6.039932|   -8.273221|    0.824011|    0.012017|
|         388|   -6.045498|   -8.272881|    0.824011|    0.012017|
|         389|   -6.050396|   -8.272315|    0.824011|    0.012017|
|         390|   -6.054606|   -8.271595|    0.824011|    0.012017|
|         391|   -6.058122|   -8.270799|    0.824011|    0.012017|
|         392|   -6.060955|   -8.270006|    0.824011|    0.012017|
|         393|   -6.063129|   -8.269292|    0.824011|    0.012017|
|         394|   -6.064679|   -8.268729|    0.824011|    0.012017|
|         395|   -6.065651|   -8.268383|    0.824011|    0.012017|
|         396|   -6.066099|   -8.268312|    0.824011|    0.012017|
|         397|   -6.066079|   -8.268568|    0.824011|    0.012017|
|         398|   -6.065653|   -8.269190|    0.824012|    0.012017|
|         399|   -6.064882|   -8.270210|    0.824012|    0.012017|
|         400|   -6.063825|   -8.271650|    0.824012|    0.012017|
|         401|   -6.062542|   -8.273521|    0.824012|    0.012016|
+-----------------------------------------------------------------------+
|Fixed CL Mode                           |Value                         |
+-----------------------------------------------------------------------+
|Current CL                              |0.824012                      |
|Target CL                               |0.824                         |
|Previous AOA                            |2.78906                       |
|Changed AoA by                          |-6.05786e-05                  |
+-----------------------------------------------------------------------+
+----------------------------------------------------------------+
|  Inner_Iter|    rms[Rho]|     rms[nu]|          CL|          CD|
+----------------------------------------------------------------+
|         402|   -4.410971|   -8.212314|    0.824013|    0.012016|
|         403|   -4.794544|   -8.244790|    0.824013|    0.012016|
|         404|   -5.035922|   -8.257431|    0.824013|    0.012016|
|         405|   -5.113118|   -8.266217|    0.824014|    0.012016|
|         406|   -5.165853|   -8.273785|    0.824014|    0.012015|
|         407|   -5.234247|   -8.280763|    0.824014|    0.012015|
|         408|   -5.318373|   -8.287372|    0.824015|    0.012015|
|         409|   -5.405551|   -8.293749|    0.824015|    0.012015|
|         410|   -5.480024|   -8.299976|    0.824015|    0.012015|
|         411|   -5.534327|   -8.306059|    0.824015|    0.012015|
|         412|   -5.570373|   -8.311997|    0.824016|    0.012015|
|         413|   -5.591823|   -8.317846|    0.824016|    0.012015|
|         414|   -5.602118|   -8.323683|    0.824016|    0.012015|
|         415|   -5.606514|   -8.329571|    0.824017|    0.012015|
|         416|   -5.611097|   -8.335499|    0.824017|    0.012015|
|         417|   -5.620048|   -8.341419|    0.824017|    0.012015|
|         418|   -5.634425|   -8.347291|    0.824018|    0.012015|
|         419|   -5.652675|   -8.353103|    0.824018|    0.012015|
|         420|   -5.672078|   -8.358856|    0.824018|    0.012015|
|         421|   -5.690422|   -8.364556|    0.824018|    0.012015|
|         422|   -5.707074|   -8.370187|    0.824019|    0.012014|
|         423|   -5.722818|   -8.375706|    0.824019|    0.012014|
|         424|   -5.738809|   -8.381061|    0.824019|    0.012014|
|         425|   -5.755649|   -8.386194|    0.824019|    0.012014|
|         426|   -5.773099|   -8.391067|    0.824019|    0.012014|
|         427|   -5.790329|   -8.395652|    0.824020|    0.012014|
|         428|   -5.806340|   -8.399930|    0.824020|    0.012014|
|         429|   -5.820303|   -8.403924|    0.824020|    0.012014|
|         430|   -5.831744|   -8.407654|    0.824020|    0.012014|
|         431|   -5.840622|   -8.411151|    0.824020|    0.012014|
|         432|   -5.847350|   -8.414440|    0.824020|    0.012014|
|         433|   -5.852713|   -8.417557|    0.824020|    0.012014|
|         434|   -5.857701|   -8.420533|    0.824020|    0.012014|
|         435|   -5.863275|   -8.423389|    0.824020|    0.012014|
|         436|   -5.870174|   -8.426139|    0.824020|    0.012014|
|         437|   -5.878797|   -8.428792|    0.824020|    0.012014|
|         438|   -5.889175|   -8.431351|    0.824020|    0.012014|
|         439|   -5.900981|   -8.433818|    0.824020|    0.012014|
|         440|   -5.913588|   -8.436192|    0.824020|    0.012014|
|         441|   -5.926164|   -8.438480|    0.824020|    0.012014|
|         442|   -5.937831|   -8.440687|    0.824020|    0.012014|
|         443|   -5.947874|   -8.442823|    0.824020|    0.012014|
|         444|   -5.955942|   -8.444902|    0.824020|    0.012014|
|         445|   -5.962145|   -8.446937|    0.824020|    0.012014|
|         446|   -5.966995|   -8.448941|    0.824019|    0.012014|
|         447|   -5.971224|   -8.450923|    0.824019|    0.012014|
|         448|   -5.975566|   -8.452888|    0.824019|    0.012014|
|         449|   -5.980581|   -8.454835|    0.824019|    0.012015|
|         450|   -5.986567|   -8.456760|    0.824019|    0.012015|
|         451|   -5.993548|   -8.458643|    0.824019|    0.012015|
|         452|   -6.001319|   -8.460462|    0.824018|    0.012015|
|         453|   -6.009530|   -8.462209|    0.824018|    0.012015|
|         454|   -6.017776|   -8.463841|    0.824018|    0.012015|
|         455|   -6.025695|   -8.465329|    0.824018|    0.012015|
|         456|   -6.033033|   -8.466642|    0.824017|    0.012015|
|         457|   -6.039681|   -8.467756|    0.824017|    0.012015|
|         458|   -6.045669|   -8.468650|    0.824017|    0.012015|
|         459|   -6.051127|   -8.469312|    0.824017|    0.012015|
|         460|   -6.056236|   -8.469738|    0.824016|    0.012015|
|         461|   -6.061174|   -8.469933|    0.824016|    0.012015|
|         462|   -6.066085|   -8.469915|    0.824015|    0.012015|
|         463|   -6.071059|   -8.469712|    0.824015|    0.012015|
|         464|   -6.076139|   -8.469366|    0.824015|    0.012015|
|         465|   -6.081328|   -8.468928|    0.824014|    0.012016|
|         466|   -6.086610|   -8.468457|    0.824014|    0.012016|
|         467|   -6.091960|   -8.468025|    0.824013|    0.012016|
|         468|   -6.097362|   -8.467703|    0.824013|    0.012016|
|         469|   -6.102809|   -8.467567|    0.824013|    0.012016|
|         470|   -6.108305|   -8.467690|    0.824012|    0.012016|
|         471|   -6.113860|   -8.468143|    0.824012|    0.012016|
|         472|   -6.119490|   -8.468987|    0.824011|    0.012016|
|         473|   -6.125206|   -8.470278|    0.824011|    0.012016|
|         474|   -6.131017|   -8.472056|    0.824010|    0.012016|
|         475|   -6.136928|   -8.474348|    0.824010|    0.012016|
|         476|   -6.142937|   -8.477167|    0.824009|    0.012016|
|         477|   -6.149041|   -8.480505|    0.824009|    0.012016|
|         478|   -6.155233|   -8.484338|    0.824009|    0.012016|
|         479|   -6.161508|   -8.488619|    0.824008|    0.012016|
|         480|   -6.167861|   -8.493283|    0.824008|    0.012016|
|         481|   -6.174290|   -8.498243|    0.824007|    0.012016|
|         482|   -6.180792|   -8.503396|    0.824007|    0.012016|
|         483|   -6.187366|   -8.508620|    0.824007|    0.012016|
|         484|   -6.194014|   -8.513786|    0.824007|    0.012016|
|         485|   -6.200735|   -8.518754|    0.824006|    0.012016|
|         486|   -6.207531|   -8.523389|    0.824006|    0.012016|
|         487|   -6.214402|   -8.527565|    0.824006|    0.012016|
|         488|   -6.221348|   -8.531174|    0.824006|    0.012016|
|         489|   -6.228367|   -8.534137|    0.824006|    0.012016|
|         490|   -6.235457|   -8.536407|    0.824005|    0.012016|
|         491|   -6.242613|   -8.537978|    0.824005|    0.012016|
|         492|   -6.249826|   -8.538882|    0.824005|    0.012016|
|         493|   -6.257088|   -8.539188|    0.824005|    0.012016|
|         494|   -6.264383|   -8.538998|    0.824005|    0.012016|
|         495|   -6.271694|   -8.538439|    0.824005|    0.012016|
|         496|   -6.278998|   -8.537651|    0.824005|    0.012016|
|         497|   -6.286268|   -8.536785|    0.824005|    0.012016|
|         498|   -6.293473|   -8.535987|    0.824005|    0.012016|
|         499|   -6.300577|   -8.535396|    0.824006|    0.012016|
|         500|   -6.307541|   -8.535134|    0.824006|    0.012016|
|         501|   -6.314323|   -8.535307|    0.824006|    0.012015|
+-----------------------------------------------------------------------+
|Fixed CL Mode                           |Value                         |
+-----------------------------------------------------------------------+
|Current CL                              |0.824006                      |
|Target CL                               |0.824                         |
|Previous AOA                            |2.789                         |
|Changed AoA by                          |-2.82455e-05                  |
+-----------------------------------------------------------------------+
+----------------------------------------------------------------+
|  Inner_Iter|    rms[Rho]|     rms[nu]|          CL|          CD|
+----------------------------------------------------------------+
|         502|   -4.742341|   -8.488550|    0.824006|    0.012015|
|         503|   -5.125307|   -8.512540|    0.824006|    0.012015|
|         504|   -5.364441|   -8.521420|    0.824006|    0.012015|
|         505|   -5.439986|   -8.527769|    0.824006|    0.012015|
|         506|   -5.491814|   -8.533613|    0.824007|    0.012015|
|         507|   -5.559342|   -8.539399|    0.824007|    0.012015|
|         508|   -5.642550|   -8.545235|    0.824007|    0.012015|
|         509|   -5.729177|   -8.551155|    0.824007|    0.012015|
|         510|   -5.804176|   -8.557137|    0.824007|    0.012015|
|         511|   -5.860296|   -8.563097|    0.824007|    0.012015|
|         512|   -5.898910|   -8.568934|    0.824008|    0.012015|
|         513|   -5.922937|   -8.574583|    0.824008|    0.012015|
|         514|   -5.935246|   -8.580000|    0.824008|    0.012015|
|         515|   -5.940871|   -8.585125|    0.824008|    0.012014|
|         516|   -5.946008|   -8.589865|    0.824008|    0.012014|
|         517|   -5.955071|   -8.594112|    0.824009|    0.012014|
|         518|   -5.969301|   -8.597791|    0.824009|    0.012014|
|         519|   -5.987265|   -8.600864|    0.824009|    0.012014|
|         520|   -6.006326|   -8.603341|    0.824009|    0.012014|
|         521|   -6.024346|   -8.605245|    0.824009|    0.012014|
|         522|   -6.040748|   -8.606613|    0.824009|    0.012014|
|         523|   -6.056322|   -8.607478|    0.824009|    0.012014|
|         524|   -6.072186|   -8.607882|    0.824009|    0.012014|
|         525|   -6.088862|   -8.607878|    0.824009|    0.012014|
|         526|   -6.106021|   -8.607536|    0.824009|    0.012014|
|         527|   -6.122746|   -8.606933|    0.824009|    0.012014|
|         528|   -6.137992|   -8.606156|    0.824009|    0.012014|
|         529|   -6.150934|   -8.605279|    0.824009|    0.012014|
|         530|   -6.161161|   -8.604381|    0.824009|    0.012014|
|         531|   -6.168728|   -8.603543|    0.824009|    0.012014|
|         532|   -6.174142|   -8.602814|    0.824009|    0.012014|
|         533|   -6.178254|   -8.602227|    0.824009|    0.012014|
|         534|   -6.182072|   -8.601804|    0.824009|    0.012014|
|         535|   -6.186534|   -8.601547|    0.824009|    0.012014|
|         536|   -6.192329|   -8.601442|    0.824009|    0.012014|
|         537|   -6.199801|   -8.601466|    0.824009|    0.012014|
|         538|   -6.208931|   -8.601585|    0.824009|    0.012014|
|         539|   -6.219364|   -8.601762|    0.824009|    0.012014|
|         540|   -6.230473|   -8.601959|    0.824009|    0.012014|
|         541|   -6.241464|   -8.602137|    0.824009|    0.012014|
|         542|   -6.251532|   -8.602264|    0.824009|    0.012014|
|         543|   -6.260055|   -8.602313|    0.824009|    0.012014|
|         544|   -6.266766|   -8.602265|    0.824008|    0.012014|
|         545|   -6.271822|   -8.602107|    0.824008|    0.012014|
|         546|   -6.275732|   -8.601833|    0.824008|    0.012014|
|         547|   -6.279188|   -8.601439|    0.824008|    0.012014|
|         548|   -6.282866|   -8.600927|    0.824008|    0.012014|
|         549|   -6.287275|   -8.600300|    0.824008|    0.012014|
|         550|   -6.292679|   -8.599558|    0.824008|    0.012014|
|         551|   -6.299098|   -8.598699|    0.824007|    0.012014|
|         552|   -6.306347|   -8.597732|    0.824007|    0.012014|
|         553|   -6.314114|   -8.596649|    0.824007|    0.012014|
|         554|   -6.322043|   -8.595441|    0.824007|    0.012014|
|         555|   -6.329815|   -8.594091|    0.824007|    0.012014|
|         556|   -6.337208|   -8.592587|    0.824007|    0.012014|
|         557|   -6.344125|   -8.590912|    0.824006|    0.012014|
|         558|   -6.350587|   -8.589053|    0.824006|    0.012014|
|         559|   -6.356703|   -8.586998|    0.824006|    0.012014|
|         560|   -6.362623|   -8.584739|    0.824006|    0.012014|
|         561|   -6.368496|   -8.582275|    0.824006|    0.012014|
|         562|   -6.374439|   -8.579610|    0.824006|    0.012014|
|         563|   -6.380523|   -8.576760|    0.824005|    0.012015|
|         564|   -6.386774|   -8.573748|    0.824005|    0.012015|
|         565|   -6.393181|   -8.570608|    0.824005|    0.012015|
|         566|   -6.399715|   -8.567379|    0.824005|    0.012015|
|         567|   -6.406338|   -8.564113|    0.824004|    0.012015|
|         568|   -6.413012|   -8.560861|    0.824004|    0.012015|
|         569|   -6.419711|   -8.557682|    0.824004|    0.012015|
|         570|   -6.426413|   -8.554633|    0.824004|    0.012015|
|         571|   -6.433102|   -8.551770|    0.824003|    0.012015|
|         572|   -6.439766|   -8.549145|    0.824003|    0.012015|
|         573|   -6.446385|   -8.546806|    0.824003|    0.012015|
|         574|   -6.452939|   -8.544791|    0.824003|    0.012015|
|         575|   -6.459399|   -8.543130|    0.824002|    0.012015|
|         576|   -6.465732|   -8.541842|    0.824002|    0.012016|
|         577|   -6.471905|   -8.540937|    0.824002|    0.012016|
|         578|   -6.477880|   -8.540413|    0.824002|    0.012016|
|         579|   -6.483628|   -8.540254|    0.824001|    0.012016|
|         580|   -6.489120|   -8.540438|    0.824001|    0.012016|
|         581|   -6.494336|   -8.540927|    0.824001|    0.012016|
|         582|   -6.499263|   -8.541678|    0.824001|    0.012016|
|         583|   -6.503895|   -8.542637|    0.824001|    0.012016|
|         584|   -6.508237|   -8.543744|    0.824000|    0.012016|
|         585|   -6.512298|   -8.544936|    0.824000|    0.012016|
|         586|   -6.516099|   -8.546146|    0.824000|    0.012016|
|         587|   -6.519665|   -8.547309|    0.824000|    0.012016|
|         588|   -6.523026|   -8.548365|    0.824000|    0.012016|
|         589|   -6.526218|   -8.549257|    0.824000|    0.012016|
|         590|   -6.529281|   -8.549941|    0.824000|    0.012016|
|         591|   -6.532254|   -8.550382|    0.824000|    0.012016|
|         592|   -6.535177|   -8.550557|    0.823999|    0.012016|
|         593|   -6.538089|   -8.550458|    0.823999|    0.012016|
|         594|   -6.541027|   -8.550089|    0.823999|    0.012016|
|         595|   -6.544021|   -8.549466|    0.823999|    0.012016|
|         596|   -6.547099|   -8.548616|    0.823999|    0.012016|
|         597|   -6.550281|   -8.547575|    0.823999|    0.012016|
|         598|   -6.553583|   -8.546383|    0.823999|    0.012016|
|         599|   -6.557011|   -8.545083|    0.823999|    0.012016|
|         600|   -6.560567|   -8.543718|    0.823999|    0.012016|
|         601|   -6.564245|   -8.542332|    0.823999|    0.012016|
+-----------------------------------------------------------------------+
|Fixed CL Mode                           |Value                         |
+-----------------------------------------------------------------------+
|Current CL                              |0.823999                      |
|Target CL                               |0.824                         |
|Previous AOA                            |2.78897                       |
|Changed AoA by                          |3.10452e-06                   |
+-----------------------------------------------------------------------+
+----------------------------------------------------------------+
|  Inner_Iter|    rms[Rho]|     rms[nu]|          CL|          CD|
+----------------------------------------------------------------+
|         602|   -5.696756|   -8.540332|    0.823999|    0.012016|
|         603|   -6.065469|   -8.539339|    0.824000|    0.012016|
|         604|   -6.283220|   -8.538174|    0.824000|    0.012016|
|         605|   -6.351477|   -8.537047|    0.824000|    0.012016|
|         606|   -6.392666|   -8.536002|    0.824000|    0.012016|
|         607|   -6.437114|   -8.535052|    0.824000|    0.012016|
|         608|   -6.481619|   -8.534198|    0.824000|    0.012016|
|         609|   -6.516458|   -8.533435|    0.824000|    0.012016|
|         610|   -6.537125|   -8.532749|    0.824000|    0.012016|
|         611|   -6.546892|   -8.532126|    0.824000|    0.012016|
|         612|   -6.550881|   -8.531550|    0.824000|    0.012016|
|         613|   -6.552205|   -8.531004|    0.824000|    0.012016|
|         614|   -6.552438|   -8.530477|    0.824000|    0.012016|
|         615|   -6.552768|   -8.529957|    0.824001|    0.012016|
|         616|   -6.554165|   -8.529438|    0.824001|    0.012016|
|         617|   -6.557050|   -8.528916|    0.824001|    0.012016|
|         618|   -6.561118|   -8.528396|    0.824001|    0.012016|
|         619|   -6.565552|   -8.527883|    0.824001|    0.012016|
|         620|   -6.569464|   -8.527390|    0.824001|    0.012016|
|         621|   -6.572305|   -8.526933|    0.824001|    0.012016|
|         622|   -6.574008|   -8.526532|    0.824001|    0.012015|
|         623|   -6.574857|   -8.526209|    0.824001|    0.012015|
|         624|   -6.575248|   -8.525986|    0.824001|    0.012015|
|         625|   -6.575504|   -8.525887|    0.824001|    0.012015|
|         626|   -6.575820|   -8.525933|    0.824001|    0.012015|
|         627|   -6.576281|   -8.526145|    0.824001|    0.012015|
|         628|   -6.576906|   -8.526540|    0.824001|    0.012015|
|         629|   -6.577672|   -8.527133|    0.824001|    0.012015|
|         630|   -6.578536|   -8.527933|    0.824001|    0.012015|
|         631|   -6.579452|   -8.528947|    0.824001|    0.012015|
|         632|   -6.580392|   -8.530177|    0.824001|    0.012015|
|         633|   -6.581366|   -8.531619|    0.824001|    0.012015|
|         634|   -6.582424|   -8.533269|    0.824001|    0.012015|
|         635|   -6.583644|   -8.535116|    0.824001|    0.012015|
|         636|   -6.585114|   -8.537147|    0.824001|    0.012015|
|         637|   -6.586917|   -8.539347|    0.824001|    0.012015|
|         638|   -6.589111|   -8.541699|    0.824001|    0.012015|
|         639|   -6.591726|   -8.544185|    0.824001|    0.012015|
|         640|   -6.594760|   -8.546785|    0.824001|    0.012015|
|         641|   -6.598185|   -8.549483|    0.824001|    0.012015|
|         642|   -6.601958|   -8.552261|    0.824001|    0.012015|
|         643|   -6.606028|   -8.555104|    0.824001|    0.012015|
|         644|   -6.610351|   -8.558001|    0.824001|    0.012014|
|         645|   -6.614893|   -8.560940|    0.824002|    0.012014|
|         646|   -6.619632|   -8.563917|    0.824002|    0.012014|
|         647|   -6.624554|   -8.566926|    0.824002|    0.012014|
|         648|   -6.629647|   -8.569966|    0.824002|    0.012014|
|         649|   -6.634890|   -8.573041|    0.824002|    0.012014|
|         650|   -6.640251|   -8.576153|    0.824002|    0.012014|
|         651|   -6.645686|   -8.579308|    0.824002|    0.012014|
|         652|   -6.651136|   -8.582511|    0.824002|    0.012014|
|         653|   -6.656537|   -8.585770|    0.824002|    0.012014|
|         654|   -6.661821|   -8.589090|    0.824002|    0.012014|
|         655|   -6.666926|   -8.592476|    0.824002|    0.012014|
|         656|   -6.671793|   -8.595930|    0.824002|    0.012014|
|         657|   -6.676375|   -8.599454|    0.824002|    0.012014|
|         658|   -6.680637|   -8.603045|    0.824002|    0.012015|
|         659|   -6.684549|   -8.606699|    0.824002|    0.012015|
|         660|   -6.688093|   -8.610407|    0.824002|    0.012015|
|         661|   -6.691253|   -8.614159|    0.824002|    0.012015|
|         662|   -6.694022|   -8.617941|    0.824002|    0.012015|
|         663|   -6.696394|   -8.621738|    0.824003|    0.012015|
|         664|   -6.698370|   -8.625534|    0.824003|    0.012015|
|         665|   -6.699954|   -8.629310|    0.824003|    0.012015|
|         666|   -6.701156|   -8.633049|    0.824003|    0.012015|
|         667|   -6.701990|   -8.636731|    0.824003|    0.012015|
|         668|   -6.702477|   -8.640341|    0.824003|    0.012015|
|         669|   -6.702642|   -8.643864|    0.824003|    0.012015|
|         670|   -6.702512|   -8.647290|    0.824003|    0.012015|
|         671|   -6.702119|   -8.650610|    0.824003|    0.012015|
|         672|   -6.701497|   -8.653820|    0.824003|    0.012015|
|         673|   -6.700680|   -8.656920|    0.824003|    0.012015|
|         674|   -6.699705|   -8.659915|    0.824003|    0.012015|
|         675|   -6.698605|   -8.662810|    0.824003|    0.012015|
|         676|   -6.697417|   -8.665617|    0.824003|    0.012015|
|         677|   -6.696176|   -8.668349|    0.824003|    0.012015|
|         678|   -6.694913|   -8.671021|    0.824003|    0.012015|
|         679|   -6.693663|   -8.673648|    0.824003|    0.012015|
|         680|   -6.692456|   -8.676246|    0.824003|    0.012016|
|         681|   -6.691322|   -8.678832|    0.824003|    0.012016|
|         682|   -6.690289|   -8.681418|    0.824003|    0.012016|
|         683|   -6.689384|   -8.684018|    0.824003|    0.012016|
|         684|   -6.688632|   -8.686639|    0.824003|    0.012016|
|         685|   -6.688056|   -8.689289|    0.824003|    0.012016|
|         686|   -6.687679|   -8.691970|    0.824003|    0.012016|
|         687|   -6.687519|   -8.694681|    0.824003|    0.012016|
|         688|   -6.687597|   -8.697419|    0.824003|    0.012016|
|         689|   -6.687928|   -8.700176|    0.824003|    0.012016|
|         690|   -6.688527|   -8.702943|    0.824003|    0.012016|
|         691|   -6.689409|   -8.705706|    0.824003|    0.012016|
|         692|   -6.690584|   -8.708453|    0.824003|    0.012016|
|         693|   -6.692062|   -8.711167|    0.824003|    0.012016|
|         694|   -6.693850|   -8.713834|    0.824003|    0.012016|
|         695|   -6.695954|   -8.716438|    0.824003|    0.012016|
|         696|   -6.698376|   -8.718967|    0.824003|    0.012016|
|         697|   -6.701117|   -8.721406|    0.824003|    0.012016|
|         698|   -6.704172|   -8.723747|    0.824003|    0.012016|
|         699|   -6.707535|   -8.725983|    0.824003|    0.012016|
|         700|   -6.711197|   -8.728108|    0.824003|    0.012016|
|         701|   -6.715144|   -8.730122|    0.824002|    0.012016|
+-----------------------------------------------------------------------+
|Fixed CL Mode                           |Value                         |
+-----------------------------------------------------------------------+
|Current CL                              |0.824002                      |
|Target CL                               |0.824                         |
|Previous AOA                            |2.78897                       |
|Changed AoA by                          |-1.26005e-05                  |
+-----------------------------------------------------------------------+
+----------------------------------------------------------------+
|  Inner_Iter|    rms[Rho]|     rms[nu]|          CL|          CD|
+----------------------------------------------------------------+
|         702|   -5.093064|   -8.708151|    0.824002|    0.012016|
|         703|   -5.478123|   -8.721854|    0.824002|    0.012016|
|         704|   -5.723193|   -8.726980|    0.824002|    0.012016|
|         705|   -5.801650|   -8.730409|    0.824002|    0.012016|
|         706|   -5.854289|   -8.733228|    0.824002|    0.012016|
|         707|   -5.922661|   -8.735689|    0.824002|    0.012016|
|         708|   -6.007058|   -8.737863|    0.824002|    0.012016|
|         709|   -6.094520|   -8.739799|    0.824002|    0.012016|
|         710|   -6.168736|   -8.741532|    0.824002|    0.012016|
|         711|   -6.221947|   -8.743089|    0.824002|    0.012016|
|         712|   -6.256333|   -8.744505|    0.824002|    0.012016|
|         713|   -6.276053|   -8.745839|    0.824002|    0.012016|
|         714|   -6.285001|   -8.747154|    0.824002|    0.012016|
|         715|   -6.288656|   -8.748503|    0.824002|    0.012016|
|         716|   -6.293064|   -8.749916|    0.824002|    0.012016|
|         717|   -6.302234|   -8.751401|    0.824002|    0.012016|
|         718|   -6.317015|   -8.752965|    0.824001|    0.012016|
|         719|   -6.335632|   -8.754617|    0.824001|    0.012016|
|         720|   -6.355111|   -8.756367|    0.824001|    0.012016|
|         721|   -6.373010|   -8.758221|    0.824001|    0.012016|
|         722|   -6.388577|   -8.760174|    0.824001|    0.012016|
|         723|   -6.402613|   -8.762216|    0.824001|    0.012016|
|         724|   -6.416392|   -8.764332|    0.824001|    0.012016|
|         725|   -6.430681|   -8.766507|    0.824001|    0.012016|
|         726|   -6.445440|   -8.768730|    0.824001|    0.012016|
|         727|   -6.460056|   -8.770991|    0.824001|    0.012016|
|         728|   -6.473736|   -8.773284|    0.824001|    0.012016|
|         729|   -6.485795|   -8.775605|    0.824001|    0.012016|
|         730|   -6.495798|   -8.777953|    0.824001|    0.012016|
|         731|   -6.503640|   -8.780327|    0.824001|    0.012016|
|         732|   -6.509587|   -8.782724|    0.824001|    0.012016|
|         733|   -6.514250|   -8.785150|    0.824001|    0.012016|
|         734|   -6.518461|   -8.787605|    0.824001|    0.012016|
|         735|   -6.523078|   -8.790089|    0.824001|    0.012016|
|         736|   -6.528798|   -8.792605|    0.824001|    0.012016|
|         737|   -6.536037|   -8.795147|    0.824001|    0.012016|
|         738|   -6.544888|   -8.797716|    0.824001|    0.012016|
|         739|   -6.555133|   -8.800311|    0.824001|    0.012016|
|         740|   -6.566281|   -8.802932|    0.824001|    0.012016|
|         741|   -6.577659|   -8.805580|    0.824001|    0.012016|
|         742|   -6.588541|   -8.808259|    0.824001|    0.012016|
|         743|   -6.598322|   -8.810971|    0.824001|    0.012016|
|         744|   -6.606683|   -8.813722|    0.824001|    0.012016|
|         745|   -6.613676|   -8.816515|    0.824001|    0.012016|
|         746|   -6.619692|   -8.819357|    0.824001|    0.012016|
|         747|   -6.625324|   -8.822252|    0.824001|    0.012015|
|         748|   -6.631186|   -8.825204|    0.824001|    0.012015|
|         749|   -6.637767|   -8.828226|    0.824001|    0.012015|
|         750|   -6.645344|   -8.831321|    0.824001|    0.012015|
|         751|   -6.653955|   -8.834492|    0.824001|    0.012015|
|         752|   -6.663432|   -8.837743|    0.824001|    0.012015|
|         753|   -6.673465|   -8.841074|    0.824001|    0.012015|
|         754|   -6.683676|   -8.844490|    0.824001|    0.012015|
|         755|   -6.693705|   -8.847996|    0.824001|    0.012015|
|         756|   -6.703274|   -8.851601|    0.824001|    0.012015|
|         757|   -6.712225|   -8.855313|    0.824001|    0.012015|
|         758|   -6.720525|   -8.859143|    0.824001|    0.012015|
|         759|   -6.728239|   -8.863101|    0.824001|    0.012015|
|         760|   -6.735486|   -8.867202|    0.824001|    0.012015|
|         761|   -6.742393|   -8.871461|    0.824001|    0.012015|
|         762|   -6.749063|   -8.875894|    0.824001|    0.012015|
|         763|   -6.755554|   -8.880518|    0.824001|    0.012015|
|         764|   -6.761878|   -8.885353|    0.824001|    0.012015|
|         765|   -6.768013|   -8.890418|    0.824001|    0.012015|
|         766|   -6.773916|   -8.895731|    0.824001|    0.012015|
|         767|   -6.779541|   -8.901311|    0.824001|    0.012015|
|         768|   -6.784849|   -8.907173|    0.824001|    0.012015|
|         769|   -6.789814|   -8.913330|    0.824001|    0.012015|
|         770|   -6.794424|   -8.919788|    0.824001|    0.012015|
|         771|   -6.798679|   -8.926551|    0.824001|    0.012015|
|         772|   -6.802585|   -8.933615|    0.824001|    0.012015|
|         773|   -6.806152|   -8.940970|    0.824001|    0.012015|
|         774|   -6.809388|   -8.948597|    0.824001|    0.012015|
|         775|   -6.812302|   -8.956470|    0.824001|    0.012015|
|         776|   -6.814901|   -8.964552|    0.824001|    0.012015|
|         777|   -6.817195|   -8.972802|    0.824001|    0.012015|
|         778|   -6.819194|   -8.981168|    0.824001|    0.012015|
|         779|   -6.820915|   -8.989595|    0.824001|    0.012015|
|         780|   -6.822377|   -8.998021|    0.824001|    0.012015|
|         781|   -6.823603|   -9.006382|    0.824001|    0.012015|
|         782|   -6.824621|   -9.014615|    0.824001|    0.012015|
|         783|   -6.825459|   -9.022660|    0.824001|    0.012015|
|         784|   -6.826149|   -9.030460|    0.824001|    0.012015|
|         785|   -6.826724|   -9.037970|    0.824001|    0.012015|
|         786|   -6.827217|   -9.045152|    0.824001|    0.012015|
|         787|   -6.827660|   -9.051982|    0.824001|    0.012015|
|         788|   -6.828087|   -9.058450|    0.824001|    0.012015|
|         789|   -6.828529|   -9.064556|    0.824001|    0.012015|
|         790|   -6.829018|   -9.070315|    0.824001|    0.012015|
|         791|   -6.829581|   -9.075752|    0.824001|    0.012015|
|         792|   -6.830247|   -9.080901|    0.824001|    0.012015|
|         793|   -6.831041|   -9.085801|    0.824001|    0.012015|
|         794|   -6.831984|   -9.090493|    0.824001|    0.012016|
|         795|   -6.833095|   -9.095020|    0.824001|    0.012016|
|         796|   -6.834391|   -9.099421|    0.824001|    0.012016|
|         797|   -6.835884|   -9.103729|    0.824001|    0.012016|
|         798|   -6.837581|   -9.107972|    0.824002|    0.012016|
|         799|   -6.839487|   -9.112169|    0.824002|    0.012016|
|         800|   -6.841603|   -9.116330|    0.824002|    0.012016|
|         801|   -6.843924|   -9.120457|    0.824002|    0.012016|
+-----------------------------------------------------------------------+
|Fixed CL Mode                           |Value                         |
+-----------------------------------------------------------------------+
|Current CL                              |0.824002                      |
|Target CL                               |0.824                         |
|Previous AOA                            |2.78896                       |
|Changed AoA by                          |-8.68517e-06                  |
+-----------------------------------------------------------------------+
+----------------------------------------------------------------+
|  Inner_Iter|    rms[Rho]|     rms[nu]|          CL|          CD|
+----------------------------------------------------------------+
|         802|   -5.254509|   -9.060957|    0.824002|    0.012016|
|         803|   -5.638371|   -9.094651|    0.824002|    0.012016|
|         804|   -5.880988|   -9.107628|    0.824002|    0.012016|
|         805|   -5.959058|   -9.116383|    0.824002|    0.012016|
|         806|   -6.012066|   -9.123658|    0.824002|    0.012016|
|         807|   -6.080528|   -9.130037|    0.824002|    0.012016|
|         808|   -6.164581|   -9.135641|    0.824002|    0.012016|
|         809|   -6.251391|   -9.140515|    0.824002|    0.012016|
|         810|   -6.325024|   -9.144687|    0.824003|    0.012016|
|         811|   -6.378096|   -9.148165|    0.824003|    0.012016|
|         812|   -6.412811|   -9.150994|    0.824003|    0.012016|
|         813|   -6.433119|   -9.153306|    0.824003|    0.012016|
|         814|   -6.442650|   -9.155283|    0.824003|    0.012016|
|         815|   -6.446682|   -9.157076|    0.824003|    0.012016|
|         816|   -6.451179|   -9.158776|    0.824003|    0.012016|
|         817|   -6.460166|   -9.160429|    0.824003|    0.012016|
|         818|   -6.474562|   -9.162076|    0.824003|    0.012016|
|         819|   -6.492691|   -9.163772|    0.824003|    0.012016|
|         820|   -6.511700|   -9.165584|    0.824003|    0.012016|
|         821|   -6.529250|   -9.167564|    0.824003|    0.012016|
|         822|   -6.544617|   -9.169742|    0.824003|    0.012016|
|         823|   -6.558539|   -9.172121|    0.824003|    0.012016|
|         824|   -6.572172|   -9.174694|    0.824003|    0.012016|
|         825|   -6.586158|   -9.177449|    0.824003|    0.012016|
|         826|   -6.600349|   -9.180380|    0.824003|    0.012016|
|         827|   -6.614060|   -9.183489|    0.824003|    0.012016|
|         828|   -6.626469|   -9.186782|    0.824003|    0.012016|
|         829|   -6.636918|   -9.190264|    0.824003|    0.012016|
|         830|   -6.645051|   -9.193944|    0.824003|    0.012016|
|         831|   -6.650867|   -9.197826|    0.824003|    0.012016|
|         832|   -6.654724|   -9.201908|    0.824003|    0.012016|
|         833|   -6.657283|   -9.206179|    0.824003|    0.012016|
|         834|   -6.659364|   -9.210635|    0.824003|    0.012016|
|         835|   -6.661762|   -9.215247|    0.824003|    0.012016|
|         836|   -6.665079|   -9.219988|    0.824003|    0.012016|
|         837|   -6.669639|   -9.224818|    0.824003|    0.012016|
|         838|   -6.675464|   -9.229698|    0.824003|    0.012016|
|         839|   -6.682307|   -9.234586|    0.824003|    0.012016|
|         840|   -6.689713|   -9.239451|    0.824003|    0.012016|
|         841|   -6.697116|   -9.244261|    0.824002|    0.012016|
|         842|   -6.703957|   -9.248987|    0.824002|    0.012016|
|         843|   -6.709829|   -9.253618|    0.824002|    0.012016|
|         844|   -6.714580|   -9.258161|    0.824002|    0.012016|
|         845|   -6.718352|   -9.262623|    0.824002|    0.012016|
|         846|   -6.721523|   -9.267021|    0.824002|    0.012016|
|         847|   -6.724590|   -9.271380|    0.824002|    0.012016|
|         848|   -6.728032|   -9.275726|    0.824002|    0.012016|
|         849|   -6.732208|   -9.280099|    0.824002|    0.012016|
|         850|   -6.737304|   -9.284530|    0.824002|    0.012016|
|         851|   -6.743328|   -9.289023|    0.824002|    0.012016|
|         852|   -6.750137|   -9.293604|    0.824002|    0.012016|
|         853|   -6.757500|   -9.298297|    0.824002|    0.012016|
|         854|   -6.765151|   -9.303119|    0.824002|    0.012016|
|         855|   -6.772848|   -9.308083|    0.824002|    0.012016|
|         856|   -6.780414|   -9.313193|    0.824002|    0.012016|
|         857|   -6.787758|   -9.318442|    0.824002|    0.012016|
|         858|   -6.794866|   -9.323817|    0.824001|    0.012016|
|         859|   -6.801785|   -9.329295|    0.824001|    0.012016|
|         860|   -6.808586|   -9.334848|    0.824001|    0.012016|
|         861|   -6.815340|   -9.340439|    0.824001|    0.012016|
|         862|   -6.822092|   -9.346031|    0.824001|    0.012016|
|         863|   -6.828854|   -9.351585|    0.824001|    0.012016|
|         864|   -6.835602|   -9.357062|    0.824001|    0.012016|
|         865|   -6.842283|   -9.362429|    0.824001|    0.012016|
|         866|   -6.848830|   -9.367658|    0.824001|    0.012016|
|         867|   -6.855168|   -9.372744|    0.824001|    0.012015|
|         868|   -6.861223|   -9.377680|    0.824001|    0.012015|
|         869|   -6.866932|   -9.382475|    0.824001|    0.012015|
|         870|   -6.872239|   -9.387153|    0.824001|    0.012015|
|         871|   -6.877096|   -9.391752|    0.824001|    0.012015|
|         872|   -6.881463|   -9.396316|    0.824001|    0.012015|
|         873|   -6.885307|   -9.400899|    0.824001|    0.012015|
|         874|   -6.888599|   -9.405556|    0.824001|    0.012015|
|         875|   -6.891316|   -9.410344|    0.824001|    0.012015|
|         876|   -6.893444|   -9.415315|    0.824001|    0.012015|
|         877|   -6.894978|   -9.420513|    0.824001|    0.012015|
|         878|   -6.895925|   -9.425970|    0.824001|    0.012015|
|         879|   -6.896304|   -9.431704|    0.824001|    0.012015|
|         880|   -6.896145|   -9.437719|    0.824001|    0.012015|
|         881|   -6.895488|   -9.443996|    0.824001|    0.012015|
|         882|   -6.894383|   -9.450499|    0.824001|    0.012015|
|         883|   -6.892887|   -9.457176|    0.824001|    0.012015|
|         884|   -6.891059|   -9.463954|    0.824001|    0.012015|
|         885|   -6.888962|   -9.470739|    0.824001|    0.012015|
|         886|   -6.886659|   -9.477428|    0.824001|    0.012015|
|         887|   -6.884211|   -9.483911|    0.824001|    0.012015|
|         888|   -6.881677|   -9.490073|    0.824001|    0.012015|
|         889|   -6.879113|   -9.495804|    0.824001|    0.012015|
|         890|   -6.876570|   -9.501007|    0.824001|    0.012015|
|         891|   -6.874093|   -9.505601|    0.824001|    0.012015|
|         892|   -6.871726|   -9.509529|    0.824001|    0.012015|
|         893|   -6.869505|   -9.512761|    0.824001|    0.012015|
|         894|   -6.867463|   -9.515296|    0.824001|    0.012015|
|         895|   -6.865625|   -9.517157|    0.824001|    0.012015|
|         896|   -6.864017|   -9.518387|    0.824001|    0.012015|
|         897|   -6.862657|   -9.519045|    0.824001|    0.012016|
|         898|   -6.861560|   -9.519196|    0.824001|    0.012016|
|         899|   -6.860740|   -9.518902|    0.824001|    0.012016|
|         900|   -6.860205|   -9.518216|    0.824001|    0.012016|
|         901|   -6.859962|   -9.517177|    0.824002|    0.012015|
+-----------------------------------------------------------------------+
|Fixed CL Mode                           |Value                         |
+-----------------------------------------------------------------------+
|Current CL                              |0.824002                      |
|Target CL                               |0.824                         |
|Previous AOA                            |2.78895                       |
[...]
|        5298|   -6.037077|   -7.962021|    0.824236|    0.012019|
|        5299|   -6.043753|   -7.965745|    0.824237|    0.012019|
|        5300|   -6.050039|   -7.969512|    0.824237|    0.012019|
|        5301|   -6.055895|   -7.973337|    0.824237|    0.012019|
|        5302|   -6.061293|   -7.977234|    0.824237|    0.012019|
|        5303|   -6.066218|   -7.981211|    0.824237|    0.012019|
|        5304|   -6.070664|   -7.985278|    0.824237|    0.012019|
|        5305|   -6.074640|   -7.989437|    0.824237|    0.012019|
|        5306|   -6.078165|   -7.993694|    0.824237|    0.012019|
|        5307|   -6.081268|   -7.998049|    0.824237|    0.012019|
|        5308|   -6.083989|   -8.002503|    0.824238|    0.012019|
|        5309|   -6.086373|   -8.007058|    0.824238|    0.012019|
|        5310|   -6.088473|   -8.011712|    0.824238|    0.012019|
|        5311|   -6.090343|   -8.016467|    0.824238|    0.012019|
|        5312|   -6.092040|   -8.021324|    0.824238|    0.012019|
|        5313|   -6.093623|   -8.026284|    0.824238|    0.012019|
|        5314|   -6.095145|   -8.031352|    0.824238|    0.012019|
|        5315|   -6.096660|   -8.036530|    0.824238|    0.012019|
|        5316|   -6.098217|   -8.041821|    0.824238|    0.012019|
|        5317|   -6.099860|   -8.047230|    0.824239|    0.012019|
|        5318|   -6.101627|   -8.052760|    0.824239|    0.012019|
|        5319|   -6.103550|   -8.058415|    0.824239|    0.012019|
|        5320|   -6.105656|   -8.064199|    0.824239|    0.012019|
|        5321|   -6.107964|   -8.070115|    0.824239|    0.012019|
|        5322|   -6.110486|   -8.076166|    0.824239|    0.012019|
|        5323|   -6.113229|   -8.082352|    0.824239|    0.012019|
|        5324|   -6.116192|   -8.088674|    0.824240|    0.012019|
|        5325|   -6.119369|   -8.095129|    0.824240|    0.012020|
|        5326|   -6.122745|   -8.101716|    0.824240|    0.012020|
|        5327|   -6.126301|   -8.108433|    0.824240|    0.012020|
|        5328|   -6.130012|   -8.115270|    0.824240|    0.012020|
|        5329|   -6.133849|   -8.122217|    0.824240|    0.012020|
|        5330|   -6.137778|   -8.129262|    0.824240|    0.012020|
|        5331|   -6.141761|   -8.136390|    0.824241|    0.012020|
|        5332|   -6.145760|   -8.143589|    0.824241|    0.012020|
|        5333|   -6.149734|   -8.150843|    0.824241|    0.012020|
|        5334|   -6.153642|   -8.158140|    0.824241|    0.012020|
|        5335|   -6.157442|   -8.165464|    0.824241|    0.012020|
|        5336|   -6.161098|   -8.172803|    0.824241|    0.012021|
|        5337|   -6.164576|   -8.180145|    0.824241|    0.012021|
|        5338|   -6.167848|   -8.187478|    0.824242|    0.012021|
|        5339|   -6.170891|   -8.194794|    0.824242|    0.012021|
|        5340|   -6.173692|   -8.202084|    0.824242|    0.012021|
|        5341|   -6.176243|   -8.209342|    0.824242|    0.012021|
|        5342|   -6.178545|   -8.216565|    0.824242|    0.012021|
|        5343|   -6.180610|   -8.223749|    0.824242|    0.012021|
|        5344|   -6.182452|   -8.230895|    0.824242|    0.012021|
|        5345|   -6.184096|   -8.238003|    0.824242|    0.012021|
|        5346|   -6.185573|   -8.245074|    0.824242|    0.012021|
|        5347|   -6.186916|   -8.252113|    0.824243|    0.012021|
|        5348|   -6.188165|   -8.259123|    0.824243|    0.012021|
|        5349|   -6.189361|   -8.266110|    0.824243|    0.012021|
|        5350|   -6.190546|   -8.273079|    0.824243|    0.012022|
|        5351|   -6.191763|   -8.280035|    0.824243|    0.012022|
|        5352|   -6.193054|   -8.286983|    0.824243|    0.012022|
|        5353|   -6.194459|   -8.293928|    0.824243|    0.012022|
|        5354|   -6.196015|   -8.300873|    0.824243|    0.012022|
|        5355|   -6.197758|   -8.307821|    0.824243|    0.012022|
|        5356|   -6.199717|   -8.314775|    0.824243|    0.012022|
|        5357|   -6.201918|   -8.321735|    0.824243|    0.012022|
|        5358|   -6.204385|   -8.328701|    0.824243|    0.012022|
|        5359|   -6.207134|   -8.335673|    0.824243|    0.012022|
|        5360|   -6.210179|   -8.342648|    0.824243|    0.012022|
|        5361|   -6.213526|   -8.349623|    0.824243|    0.012022|
|        5362|   -6.217179|   -8.356598|    0.824243|    0.012022|
|        5363|   -6.221136|   -8.363564|    0.824243|    0.012022|
|        5364|   -6.225391|   -8.370513|    0.824243|    0.012022|
|        5365|   -6.229931|   -8.377437|    0.824243|    0.012022|
|        5366|   -6.234739|   -8.384333|    0.824243|    0.012022|
|        5367|   -6.239795|   -8.391196|    0.824243|    0.012022|
|        5368|   -6.245072|   -8.398018|    0.824243|    0.012022|
|        5369|   -6.250539|   -8.404788|    0.824243|    0.012022|
|        5370|   -6.256163|   -8.411500|    0.824243|    0.012021|
|        5371|   -6.261903|   -8.418148|    0.824243|    0.012021|
|        5372|   -6.267719|   -8.424727|    0.824243|    0.012021|
|        5373|   -6.273565|   -8.431232|    0.824243|    0.012021|
|        5374|   -6.279394|   -8.437662|    0.824243|    0.012021|
|        5375|   -6.285159|   -8.444015|    0.824243|    0.012021|
|        5376|   -6.290812|   -8.450291|    0.824243|    0.012021|
|        5377|   -6.296305|   -8.456493|    0.824243|    0.012021|
|        5378|   -6.301593|   -8.462622|    0.824243|    0.012021|
|        5379|   -6.306633|   -8.468685|    0.824243|    0.012021|
|        5380|   -6.311388|   -8.474687|    0.824243|    0.012021|
|        5381|   -6.315826|   -8.480637|    0.824243|    0.012021|
|        5382|   -6.319920|   -8.486539|    0.824243|    0.012021|
|        5383|   -6.323650|   -8.492399|    0.824243|    0.012021|
|        5384|   -6.327005|   -8.498223|    0.824243|    0.012020|
|        5385|   -6.329979|   -8.504016|    0.824243|    0.012020|
|        5386|   -6.332574|   -8.509783|    0.824243|    0.012020|
|        5387|   -6.334799|   -8.515522|    0.824243|    0.012020|
|        5388|   -6.336667|   -8.521236|    0.824243|    0.012020|
|        5389|   -6.338197|   -8.526926|    0.824243|    0.012020|
|        5390|   -6.339413|   -8.532593|    0.824243|    0.012020|
|        5391|   -6.340339|   -8.538233|    0.824243|    0.012020|
|        5392|   -6.341002|   -8.543842|    0.824243|    0.012020|
|        5393|   -6.341430|   -8.549410|    0.824243|    0.012020|
|        5394|   -6.341651|   -8.554926|    0.824244|    0.012020|
|        5395|   -6.341690|   -8.560375|    0.824244|    0.012019|
|        5396|   -6.341573|   -8.565740|    0.824244|    0.012019|
|        5397|   -6.341322|   -8.571001|    0.824244|    0.012019|
|        5398|   -6.340957|   -8.576135|    0.824244|    0.012019|
|        5399|   -6.340497|   -8.581120|    0.824244|    0.012019|
|        5400|   -6.339957|   -8.585931|    0.824244|    0.012019|
|        5401|   -6.339349|   -8.590543|    0.824245|    0.012019|
|        5402|   -6.338684|   -8.594935|    0.824245|    0.012019|
|        5403|   -6.337972|   -8.599086|    0.824245|    0.012019|
|        5404|   -6.337217|   -8.602977|    0.824245|    0.012019|
|        5405|   -6.336427|   -8.606594|    0.824245|    0.012018|
|        5406|   -6.335605|   -8.609927|    0.824246|    0.012018|
|        5407|   -6.334755|   -8.612973|    0.824246|    0.012018|
|        5408|   -6.333879|   -8.615730|    0.824246|    0.012018|
|        5409|   -6.332979|   -8.618206|    0.824246|    0.012018|
|        5410|   -6.332058|   -8.620411|    0.824246|    0.012018|
|        5411|   -6.331117|   -8.622360|    0.824246|    0.012018|
|        5412|   -6.330161|   -8.624073|    0.824247|    0.012018|
|        5413|   -6.329190|   -8.625572|    0.824247|    0.012018|
|        5414|   -6.328209|   -8.626882|    0.824247|    0.012018|
|        5415|   -6.327222|   -8.628028|    0.824247|    0.012018|
|        5416|   -6.326233|   -8.629035|    0.824247|    0.012018|
|        5417|   -6.325246|   -8.629929|    0.824247|    0.012018|
|        5418|   -6.324269|   -8.630733|    0.824248|    0.012018|
|        5419|   -6.323306|   -8.631469|    0.824248|    0.012018|
|        5420|   -6.322367|   -8.632155|    0.824248|    0.012018|
|        5421|   -6.321457|   -8.632809|    0.824248|    0.012017|
|        5422|   -6.320587|   -8.633443|    0.824248|    0.012017|
|        5423|   -6.319766|   -8.634069|    0.824248|    0.012017|
|        5424|   -6.319004|   -8.634693|    0.824248|    0.012017|
|        5425|   -6.318312|   -8.635323|    0.824249|    0.012017|
|        5426|   -6.317701|   -8.635958|    0.824249|    0.012017|
|        5427|   -6.317184|   -8.636594|    0.824249|    0.012017|
|        5428|   -6.316774|   -8.637235|    0.824249|    0.012017|
|        5429|   -6.316484|   -8.637880|    0.824249|    0.012017|
|        5430|   -6.316328|   -8.638532|    0.824249|    0.012017|
|        5431|   -6.316319|   -8.639192|    0.824249|    0.012017|
|        5432|   -6.316473|   -8.639863|    0.824249|    0.012017|
|        5433|   -6.316802|   -8.640547|    0.824249|    0.012017|
|        5434|   -6.317321|   -8.641249|    0.824249|    0.012017|
|        5435|   -6.318043|   -8.641972|    0.824249|    0.012017|
|        5436|   -6.318981|   -8.642723|    0.824250|    0.012017|
|        5437|   -6.320147|   -8.643510|    0.824250|    0.012018|
|        5438|   -6.321552|   -8.644340|    0.824250|    0.012018|
|        5439|   -6.323205|   -8.645225|    0.824250|    0.012018|
|        5440|   -6.325115|   -8.646174|    0.824250|    0.012018|
|        5441|   -6.327287|   -8.647198|    0.824250|    0.012018|
|        5442|   -6.329726|   -8.648309|    0.824250|    0.012018|
|        5443|   -6.332434|   -8.649519|    0.824250|    0.012018|
|        5444|   -6.335411|   -8.650838|    0.824250|    0.012018|
|        5445|   -6.338653|   -8.652277|    0.824250|    0.012018|
|        5446|   -6.342155|   -8.653847|    0.824250|    0.012018|
|        5447|   -6.345907|   -8.655555|    0.824250|    0.012018|
|        5448|   -6.349898|   -8.657409|    0.824250|    0.012018|
|        5449|   -6.354112|   -8.659416|    0.824250|    0.012018|
|        5450|   -6.358530|   -8.661580|    0.824250|    0.012018|
|        5451|   -6.363128|   -8.663904|    0.824250|    0.012018|
|        5452|   -6.367880|   -8.666392|    0.824250|    0.012018|
|        5453|   -6.372758|   -8.669042|    0.824250|    0.012019|
|        5454|   -6.377726|   -8.671853|    0.824249|    0.012019|
|        5455|   -6.382750|   -8.674822|    0.824249|    0.012019|
|        5456|   -6.387789|   -8.677946|    0.824249|    0.012019|
|        5457|   -6.392802|   -8.681217|    0.824249|    0.012019|
|        5458|   -6.397745|   -8.684631|    0.824249|    0.012019|
|        5459|   -6.402573|   -8.688180|    0.824249|    0.012019|
|        5460|   -6.407242|   -8.691856|    0.824249|    0.012019|
|        5461|   -6.411707|   -8.695651|    0.824249|    0.012019|
|        5462|   -6.415926|   -8.699555|    0.824249|    0.012019|
|        5463|   -6.419858|   -8.703559|    0.824249|    0.012019|
|        5464|   -6.423468|   -8.707653|    0.824249|    0.012019|
|        5465|   -6.426724|   -8.711828|    0.824248|    0.012019|
|        5466|   -6.429600|   -8.716073|    0.824248|    0.012020|
|        5467|   -6.432079|   -8.720377|    0.824248|    0.012020|
|        5468|   -6.434148|   -8.724730|    0.824248|    0.012020|
|        5469|   -6.435802|   -8.729121|    0.824248|    0.012020|
|        5470|   -6.437045|   -8.733539|    0.824248|    0.012020|
|        5471|   -6.437888|   -8.737973|    0.824248|    0.012020|
|        5472|   -6.438347|   -8.742411|    0.824248|    0.012020|
|        5473|   -6.438446|   -8.746843|    0.824247|    0.012020|
|        5474|   -6.438213|   -8.751255|    0.824247|    0.012020|
|        5475|   -6.437683|   -8.755635|    0.824247|    0.012020|
|        5476|   -6.436890|   -8.759972|    0.824247|    0.012020|
|        5477|   -6.435875|   -8.764251|    0.824247|    0.012020|
|        5478|   -6.434677|   -8.768460|    0.824247|    0.012020|
|        5479|   -6.433337|   -8.772585|    0.824246|    0.012020|
|        5480|   -6.431896|   -8.776629|    0.824246|    0.012020|
|        5481|   -6.430392|   -8.780574|    0.824246|    0.012020|
|        5482|   -6.428863|   -8.784403|    0.824246|    0.012020|
|        5483|   -6.427346|   -8.788101|    0.824246|    0.012020|
|        5484|   -6.425872|   -8.791658|    0.824246|    0.012020|
|        5485|   -6.424474|   -8.795062|    0.824246|    0.012020|
|        5486|   -6.423178|   -8.798307|    0.824245|    0.012020|
|        5487|   -6.422010|   -8.801386|    0.824245|    0.012020|
|        5488|   -6.420992|   -8.804297|    0.824245|    0.012020|
|        5489|   -6.420144|   -8.807037|    0.824245|    0.012020|
|        5490|   -6.419482|   -8.809608|    0.824245|    0.012020|
|        5491|   -6.419020|   -8.812011|    0.824245|    0.012020|
|        5492|   -6.418771|   -8.814251|    0.824245|    0.012020|
|        5493|   -6.418743|   -8.816335|    0.824244|    0.012020|
|        5494|   -6.418945|   -8.818272|    0.824244|    0.012020|
|        5495|   -6.419380|   -8.820071|    0.824244|    0.012020|
|        5496|   -6.420053|   -8.821745|    0.824244|    0.012020|
|        5497|   -6.420966|   -8.823307|    0.824244|    0.012020|
|        5498|   -6.422119|   -8.824770|    0.824244|    0.012020|
|        5499|   -6.423510|   -8.826147|    0.824244|    0.012005|
+-----------------------------------------------------------------------+
|Fixed CL Mode (Finite Difference)       |Value                         |
+-----------------------------------------------------------------------+
|Delta CL / Delta AoA                    |0.243798                      |
|Delta CD / Delta CL                     |0.0173865                     |
|Delta CMz / Delta CL                    |0.0015791                     |
+-----------------------------------------------------------------------+
Writing Flow Meta-Data file: flow.meta

----------------------------- Solver Exit -------------------------------

Maximum number of iterations reached (ITER = 5500) before convergence.
+-----------------------------------------------------------------------+
|      Convergence Field     |     Value    |   Criterion  |  Converged |
+-----------------------------------------------------------------------+
|                    rms[Rho]|      -6.42351|         < -12|          No|
+-----------------------------------------------------------------------+
-------------------------------------------------------------------------

--------------------------- Finalizing Solver ---------------------------
Deleted CNumerics container.
Deleted CIntegration container.
Deleted CSolver container.
Deleted CIteration container.
Deleted CInterface container.
Deleted CGeometry container.
Deleted CFreeFormDefBox class.
Deleted CSurfaceMovement class.
Deleted CVolumetricMovement class.
Deleted CConfig container.
Deleted nInst container.
Deleted COutput class.
-------------------------------------------------------------------------

------------------------- Exit Success (SU2_CFD) ------------------------


-------------------------------------------------------------------------
|    ___ _   _ ___                                                      |
|   / __| | | |_  )   Release 8.0.0 "Harrier"                           |
|   \__ \ |_| |/ /                                                      |
|   |___/\___//___|   Suite (Solution Exporting Code)                   |
|                                                                       |
-------------------------------------------------------------------------
| SU2 Project Website: https://su2code.github.io                        |
|                                                                       |
| The SU2 Project is maintained by the SU2 Foundation                   |
| (http://su2foundation.org)                                            |
-------------------------------------------------------------------------
| Copyright 2012-2023, SU2 Contributors                                 |
|                                                                       |
| SU2 is free software; you can redistribute it and/or                  |
| modify it under the terms of the GNU Lesser General Public            |
| License as published by the Free Software Foundation; either          |
| version 2.1 of the License, or (at your option) any later version.    |
|                                                                       |
| SU2 is distributed in the hope that it will be useful,                |
| but WITHOUT ANY WARRANTY; without even the implied warranty of        |
| MERCHANTABILITY or FITNESS FOR A PARTICULAR PURPOSE. See the GNU      |
| Lesser General Public License for more details.                       |
|                                                                       |
| You should have received a copy of the GNU Lesser General Public      |
| License along with SU2. If not, see <http://www.gnu.org/licenses/>.   |
-------------------------------------------------------------------------

----------------- Physical Case Definition ( Zone 0 ) -------------------
Input mesh file name: mesh_RAE2822_turb_deform.su2

-------------------- Output Information ( Zone 0 ) ----------------------
The tabular file format is CSV (.csv).
Flow variables file name: flow.

------------- Config File Boundary Information ( Zone 0 ) ---------------
+-----------------------------------------------------------------------+
|                        Marker Type|                        Marker Name|
+-----------------------------------------------------------------------+
|                          Far-field|                           FARFIELD|
+-----------------------------------------------------------------------+
|                     Heat flux wall|                            AIRFOIL|
+-----------------------------------------------------------------------+
Two dimensional problem.
13937 grid points before partitioning.
22842 volume elements before partitioning.
2 surface markers.
192 boundary elements in index 0 (Marker = AIRFOIL).
40 boundary elements in index 1 (Marker = FARFIELD).
Executing the partitioning functions.
Building the graph adjacency structure.
Calling ParMETIS... graph partitioning complete (831 edge cuts).
Distributing ParMETIS coloring.
Rebalancing vertices.
Rebalancing volume element connectivity.
Rebalancing markers and surface elements.
14875 vertices including ghost points. 
23674 interior elements including halo cells. 
18780 triangles.
4894 quadrilaterals.
Establishing MPI communication patterns.
Identify vertices.
Storing a mapping from global to local point index.

------------------------- Solution Postprocessing -----------------------
Reading and storing the solution from restart_flow.
Volume output fields: COORDINATES, SOLUTION
  Info: Ignoring the following screen output fields:
  RMS_DENSITY, RMS_NU_TILDE, LIFT, DRAG
Screen output fields: INNER_ITER
  Info: Ignoring the following history output groups:
  RMS_RES, AERO_COEFF
History output group(s): ITER
Warning: No (valid) fields chosen for convergence monitoring. Convergence monitoring inactive.
Warning: No (valid) fields chosen for time convergence monitoring. Time convergence monitoring inactive.
|Paraview                           |flow.vtu                           |
|Paraview surface                   |surface_flow.vtu                   |
|CSV file                           |surface_flow.csv                   |

------------------------- Finalize Solver -------------------------
Deleted CGeometry container.
Deleted CSolver class.
Deleted CConfig container.
Deleted COutput class.

Completed in 0.016836 seconds on 6 cores.

------------------------- Exit Success (SU2_SOL) ------------------------

