
-------------------------------------------------------------------------
|    ___ _   _ ___                                                      |
|   / __| | | |_  )   Release 8.0.0 "Harrier"                           |
|   \__ \ |_| |/ /                                                      |
|   |___/\___//___|   Suite (Computational Fluid Dynamics Code)         |
|                                                                       |
-------------------------------------------------------------------------
| SU2 Project Website: https://su2code.github.io                        |
|                                                                       |
| The SU2 Project is maintained by the SU2 Foundation                   |
| (http://su2foundation.org)                                            |
-------------------------------------------------------------------------
| Copyright 2012-2023, SU2 Contributors                                 |
|                                                                       |
| SU2 is free software; you can redistribute it and/or                  |
| modify it under the terms of the GNU Lesser General Public            |
| License as published by the Free Software Foundation; either          |
| version 2.1 of the License, or (at your option) any later version.    |
|                                                                       |
| SU2 is distributed in the hope that it will be useful,                |
| but WITHOUT ANY WARRANTY; without even the implied warranty of        |
| MERCHANTABILITY or FITNESS FOR A PARTICULAR PURPOSE. See the GNU      |
| Lesser General Public License for more details.                       |
|                                                                       |
| You should have received a copy of the GNU Lesser General Public      |
| License along with SU2. If not, see <http://www.gnu.org/licenses/>.   |
-------------------------------------------------------------------------

Parsing config file for zone 0

----------------- Physical Case Definition ( Zone 0 ) -------------------
Compressible RANS equations.
Turbulence model: Spalart-Allmaras-noft2
Hybrid RANS/LES: No Hybrid RANS/LES
Mach number: 0.734.
Angle of attack (AoA): 2.31 deg, and angle of sideslip (AoS): 0 deg.
Reynolds number: 6.5e+06. Reference length 1.
Fixed CL mode, target value: 0.824.
Reading and writing binary SU2 native restart files.
Read flow solution from: solution_flow.dat.
Dimensional simulation.
The reference area is 1 m^2.
The semi-span will be computed using the max y(3D) value.
The reference length is 1 m.
Reference origin for moment evaluation is (0.25, 0, 0).
Surface(s) where the force coefficients are evaluated: AIRFOIL.

Surface(s) plotted in the output file: AIRFOIL.
Surface(s) affected by the design variables: AIRFOIL.
Input mesh file name: mesh_RAE2822_turb_deform.su2

--------------- Space Numerical Integration ( Zone 0 ) ------------------
Jameson-Schmidt-Turkel scheme (2nd order in space) for the flow inviscid terms.
JST viscous coefficients (2nd & 4th): 0.5, 0.02.
The method includes a grid stretching correction (p = 0.3).
Scalar upwind solver for the turbulence model.
First order integration in space.
Average of gradients with correction (viscous flow terms).
Average of gradients with correction (viscous turbulence terms).
Gradient for viscous and source terms: inverse-distance weighted Least-Squares.

--------------- Time Numerical Integration  ( Zone 0 ) ------------------
Local time stepping (steady state simulation).
Euler implicit method for the flow equations.
FGMRES is used for solving the linear system.
Using a ILU(0) preconditioning.
Convergence criteria of the linear solver: 1e-06.
Max number of linear iterations: 10.
No CFL adaptation.
Courant-Friedrichs-Lewy number:       10
Euler implicit time integration for the turbulence model.

------------------ Convergence Criteria  ( Zone 0 ) ---------------------
Maximum number of solver subiterations: 5500.
Begin convergence monitoring at iteration 10.
Residual minimum value: 1e-12.
Cauchy series min. value: 1e-06.
Number of Cauchy elements: 100.
Begin windowed time average at iteration 0.

-------------------- Output Information ( Zone 0 ) ----------------------
File writing frequency: 
+------------------------------------+
|                     File| Frequency|
+------------------------------------+
|                  RESTART|     10000|
|                 PARAVIEW|     10000|
|         SURFACE_PARAVIEW|     10000|
|              SURFACE_CSV|     10000|
+------------------------------------+
Writing the convergence history file every 1 inner iterations.
Writing the screen convergence history every 1 inner iterations.
The tabular file format is CSV (.csv).
Convergence history file name: history_direct.
Forces breakdown file name: forces_breakdown.dat.
Surface file name: surface_flow.
Volume file name: flow.
Restart file name: restart_flow.dat.

------------- Config File Boundary Information ( Zone 0 ) ---------------
+-----------------------------------------------------------------------+
|                        Marker Type|                        Marker Name|
+-----------------------------------------------------------------------+
|                          Far-field|                           FARFIELD|
+-----------------------------------------------------------------------+
|                     Heat flux wall|                            AIRFOIL|
+-----------------------------------------------------------------------+

-------------------- Output Preprocessing ( Zone 0 ) --------------------

WARNING: SURFACE_PRESSURE_DROP can only be computed for at least 2 surfaces (outlet, inlet, ...)

Screen output fields: INNER_ITER, RMS_DENSITY, RMS_NU_TILDE, LIFT, DRAG
History output group(s): ITER, RMS_RES, AERO_COEFF
Convergence field(s): RMS_DENSITY
Warning: No (valid) fields chosen for time convergence monitoring. Time convergence monitoring inactive.
Volume output fields: COORDINATES, SOLUTION, PRIMITIVE

------------------- Geometry Preprocessing ( Zone 0 ) -------------------
Two dimensional problem.
13937 grid points before partitioning.
22842 volume elements before partitioning.
2 surface markers.
192 boundary elements in index 0 (Marker = AIRFOIL).
40 boundary elements in index 1 (Marker = FARFIELD).
Executing the partitioning functions.
Building the graph adjacency structure.
Calling ParMETIS... graph partitioning complete (831 edge cuts).
Distributing ParMETIS coloring.
Rebalancing vertices.
Rebalancing volume element connectivity.
Rebalancing markers and surface elements.
14875 vertices including ghost points. 
23674 interior elements including halo cells. 
18780 triangles.
4894 quadrilaterals.
Establishing MPI communication patterns.
Setting point connectivity.
Renumbering points (Reverse Cuthill McKee Ordering).
Recomputing point connectivity.
Setting element connectivity.
Checking the numerical grid orientation.
All volume elements are correctly orientend.
All surface elements are correctly orientend.
Identifying edges and vertices.
Setting the control volume structure.
Area of the computational grid: 32209.9.
Searching for the closest normal neighbors to the surfaces.
Storing a mapping from global to local point index.
Compute the surface curvature.
Max K: 158.996. Mean K: 7.32025. Standard deviation K: 21.7511.
Checking for periodicity.
Computing mesh quality statistics for the dual control volumes.
+--------------------------------------------------------------+
|           Mesh Quality Metric|        Minimum|        Maximum|
+--------------------------------------------------------------+
|    Orthogonality Angle (deg.)|        75.2882|        89.9991|
|     CV Face Area Aspect Ratio|        1.00154|        3358.36|
|           CV Sub-Volume Ratio|        1.00061|        1210.73|
+--------------------------------------------------------------+
Finding max control volume width.
Communicating number of neighbors.
Wetted area = 2.02334 m.
Area projection in the x-plane = 0.123901 m, y-plane = 0.995873 m.
Max. coordinate in the x-direction = 1 m, y-direction = 0.0636265 m.
Min. coordinate in the x-direction = 0 m, y-direction = -0.0593469 m.
Computing wall distances.

-------------------- Solver Preprocessing ( Zone 0 ) --------------------
WARNING: AoA in the solution file (2.78114 deg.) +
         AoA offset in mesh file (0 deg.) = 2.78114 deg.
WARNING: SU2 will use the dCD/dCL provided in the direct solution file: 0.0190773.
WARNING: SU2 will use the dCMz/dCL provided in the direct solution file: -0.000380106.
Viscous flow: Computing pressure using the ideal gas law
based on the free-stream temperature and a density computed
from the Reynolds number.
Force coefficients computed using free-stream values.

-- Models:
+------------------------------------------------------------------------------+
|          Viscosity Model|        Conductivity Model|              Fluid Model|
+------------------------------------------------------------------------------+
|               SUTHERLAND|          CONSTANT_PRANDTL|             STANDARD_AIR|
+------------------------------------------------------------------------------+
-- Fluid properties:
+------------------------------------------------------------------------------+
|                  Name|    Dim. value|    Ref. value|      Unit|Non-dim. value|
+------------------------------------------------------------------------------+
|        Ref. Viscosity|     1.716e-05|             1|   N.s/m^2|     1.716e-05|
|      Sutherland Temp.|        273.15|             1|         K|        273.15|
|     Sutherland Const.|         110.4|             1|         K|         110.4|
+------------------------------------------------------------------------------+
|        Prandtl (Lam.)|             -|             -|         -|          0.71|
|       Prandtl (Turb.)|             -|             -|         -|           0.9|
+------------------------------------------------------------------------------+
|          Gas Constant|       287.058|             1|  N.m/kg.K|       287.058|
|      Spec. Heat Ratio|             -|             -|         -|           1.4|
+------------------------------------------------------------------------------+
-- Initial and free-stream conditions:
+------------------------------------------------------------------------------+
|                  Name|    Dim. value|    Ref. value|      Unit|Non-dim. value|
+------------------------------------------------------------------------------+
|       Static Pressure|         38515|             1|        Pa|         38515|
|               Density|      0.465631|             1|    kg/m^3|      0.465631|
|           Temperature|        288.15|             1|         K|        288.15|
|          Total Energy|        237984|             1|   m^2/s^2|        237984|
|            Velocity-X|       249.484|             1|       m/s|       249.484|
|            Velocity-Y|       12.1195|             1|       m/s|       12.1195|
|    Velocity Magnitude|       249.778|             1|       m/s|       249.778|
+------------------------------------------------------------------------------+
|             Viscosity|    1.7893e-05|             1|   N.s/m^2|    1.7893e-05|
|          Conductivity|             -|             1|   W/m^2.K|             -|
|     Turb. Kin. Energy|       233.959|             1|   m^2/s^2|       233.959|
|     Spec. Dissipation|        608834|             1|       1/s|        608834|
+------------------------------------------------------------------------------+
|           Mach Number|             -|             -|         -|         0.734|
|       Reynolds Number|             -|             -|         -|       6.5e+06|
+------------------------------------------------------------------------------+
Initialize Jacobian structure (Navier-Stokes). MG level: 0.
Initialize Jacobian structure (SA model).

------------------- Numerics Preprocessing ( Zone 0 ) -------------------

----------------- Integration Preprocessing ( Zone 0 ) ------------------

------------------- Iteration Preprocessing ( Zone 0 ) ------------------
Euler/Navier-Stokes/RANS fluid iteration.

------------------------------ Begin Solver -----------------------------

Simulation Run using the Single-zone Driver
WARNING: SU2 was not compiled for an AVX-capable architecture. Performance could be better,
         see https://su2code.github.io/docs_v7/Build-SU2-Linux-MacOS/#compiler-optimizations
+----------------------------------------------------------------+
|  Inner_Iter|    rms[Rho]|     rms[nu]|          CL|          CD|
+----------------------------------------------------------------+
|           0|   -5.160773|   -6.384473|    0.824021|    0.012111|
|           1|   -5.210118|   -6.474451|    0.824034|    0.012101|
|           2|   -5.260843|   -6.583194|    0.824039|    0.012097|
|           3|   -5.294788|   -6.708399|    0.824040|    0.012096|
|           4|   -5.313108|   -6.847089|    0.824038|    0.012096|
|           5|   -5.321368|   -6.982820|    0.824035|    0.012096|
|           6|   -5.324396|   -7.069961|    0.824031|    0.012096|
|           7|   -5.325168|   -7.077468|    0.824029|    0.012096|
|           8|   -5.324746|   -7.045469|    0.824027|    0.012096|
|           9|   -5.322815|   -7.015179|    0.824026|    0.012096|
|          10|   -5.318546|   -6.996402|    0.824026|    0.012096|
|          11|   -5.311360|   -6.984140|    0.824025|    0.012096|
|          12|   -5.301267|   -6.970122|    0.824024|    0.012096|
|          13|   -5.288787|   -6.949053|    0.824023|    0.012096|
|          14|   -5.274687|   -6.921182|    0.824022|    0.012097|
|          15|   -5.259789|   -6.890413|    0.824019|    0.012097|
|          16|   -5.244882|   -6.860876|    0.824016|    0.012098|
|          17|   -5.230716|   -6.835129|    0.824013|    0.012099|
|          18|   -5.217977|   -6.814072|    0.824010|    0.012100|
|          19|   -5.207223|   -6.797440|    0.824006|    0.012102|
|          20|   -5.198784|   -6.784295|    0.824002|    0.012103|
|          21|   -5.192691|   -6.773428|    0.823999|    0.012105|
|          22|   -5.188648|   -6.763705|    0.823997|    0.012107|
|          23|   -5.186090|   -6.754377|    0.823995|    0.012109|
|          24|   -5.184321|   -6.745282|    0.823994|    0.012111|
|          25|   -5.182683|   -6.736860|    0.823994|    0.012114|
|          26|   -5.180719|   -6.729975|    0.823994|    0.012116|
|          27|   -5.178254|   -6.725671|    0.823996|    0.012119|
|          28|   -5.175369|   -6.724922|    0.823998|    0.012121|
|          29|   -5.172301|   -6.728474|    0.823999|    0.012123|
|          30|   -5.169317|   -6.736747|    0.824001|    0.012125|
|          31|   -5.166620|   -6.749786|    0.824003|    0.012127|
|          32|   -5.164303|   -6.767219|    0.824003|    0.012129|
|          33|   -5.162350|   -6.788219|    0.824003|    0.012131|
|          34|   -5.160670|   -6.811495|    0.824003|    0.012132|
|          35|   -5.159135|   -6.835343|    0.824001|    0.012133|
|          36|   -5.157622|   -6.857835|    0.823998|    0.012134|
|          37|   -5.156034|   -6.877161|    0.823994|    0.012135|
|          38|   -5.154323|   -6.892022|    0.823990|    0.012136|
|          39|   -5.152492|   -6.901893|    0.823984|    0.012136|
|          40|   -5.150594|   -6.906981|    0.823979|    0.012137|
|          41|   -5.148717|   -6.907922|    0.823972|    0.012138|
|          42|   -5.146970|   -6.905427|    0.823966|    0.012138|
|          43|   -5.145462|   -6.900067|    0.823959|    0.012139|
|          44|   -5.144280|   -6.892267|    0.823953|    0.012140|
|          45|   -5.143480|   -6.882421|    0.823946|    0.012141|
|          46|   -5.143072|   -6.871020|    0.823940|    0.012142|
|          47|   -5.143027|   -6.858719|    0.823933|    0.012143|
|          48|   -5.143275|   -6.846296|    0.823927|    0.012144|
|          49|   -5.143729|   -6.834553|    0.823922|    0.012145|
|          50|   -5.144296|   -6.824215|    0.823916|    0.012146|
|          51|   -5.144893|   -6.815846|    0.823911|    0.012147|
|          52|   -5.145462|   -6.809801|    0.823906|    0.012148|
|          53|   -5.145976|   -6.806225|    0.823901|    0.012149|
|          54|   -5.146438|   -6.805061|    0.823896|    0.012150|
|          55|   -5.146877|   -6.806081|    0.823891|    0.012150|
|          56|   -5.147336|   -6.808917|    0.823886|    0.012151|
|          57|   -5.147865|   -6.813108|    0.823881|    0.012151|
|          58|   -5.148515|   -6.818144|    0.823876|    0.012151|
|          59|   -5.149324|   -6.823518|    0.823871|    0.012152|
|          60|   -5.150322|   -6.828778|    0.823866|    0.012152|
|          61|   -5.151524|   -6.833562|    0.823861|    0.012151|
|          62|   -5.152934|   -6.837627|    0.823856|    0.012151|
|          63|   -5.154545|   -6.840852|    0.823852|    0.012151|
|          64|   -5.156343|   -6.843222|    0.823847|    0.012150|
|          65|   -5.158310|   -6.844800|    0.823842|    0.012150|
|          66|   -5.160427|   -6.845697|    0.823838|    0.012149|
|          67|   -5.162674|   -6.846045|    0.823833|    0.012149|
|          68|   -5.165035|   -6.845969|    0.823829|    0.012148|
|          69|   -5.167500|   -6.845584|    0.823825|    0.012147|
|          70|   -5.170058|   -6.844984|    0.823822|    0.012146|
|          71|   -5.172703|   -6.844245|    0.823818|    0.012146|
|          72|   -5.175430|   -6.843423|    0.823815|    0.012145|
|          73|   -5.178234|   -6.842562|    0.823812|    0.012144|
|          74|   -5.181108|   -6.841692|    0.823809|    0.012144|
|          75|   -5.184046|   -6.840832|    0.823807|    0.012143|
|          76|   -5.187041|   -6.839994|    0.823805|    0.012142|
|          77|   -5.190087|   -6.839182|    0.823803|    0.012141|
|          78|   -5.193183|   -6.838393|    0.823801|    0.012141|
|          79|   -5.196331|   -6.837627|    0.823799|    0.012140|
|          80|   -5.199540|   -6.836880|    0.823798|    0.012139|
|          81|   -5.202825|   -6.836154|    0.823796|    0.012138|
|          82|   -5.206203|   -6.835458|    0.823795|    0.012138|
|          83|   -5.209695|   -6.834804|    0.823793|    0.012137|
|          84|   -5.213319|   -6.834212|    0.823792|    0.012136|
|          85|   -5.217088|   -6.833706|    0.823790|    0.012135|
|          86|   -5.221008|   -6.833313|    0.823789|    0.012135|
|          87|   -5.225069|   -6.833063|    0.823787|    0.012134|
|          88|   -5.229247|   -6.832981|    0.823785|    0.012133|
|          89|   -5.233507|   -6.833091|    0.823784|    0.012132|
|          90|   -5.237795|   -6.833409|    0.823782|    0.012132|
|          91|   -5.242049|   -6.833950|    0.823780|    0.012131|
|          92|   -5.246202|   -6.834718|    0.823778|    0.012130|
|          93|   -5.250180|   -6.835714|    0.823776|    0.012129|
|          94|   -5.253918|   -6.836932|    0.823774|    0.012129|
|          95|   -5.257357|   -6.838364|    0.823772|    0.012128|
|          96|   -5.260452|   -6.839995|    0.823770|    0.012127|
|          97|   -5.263177|   -6.841809|    0.823768|    0.012126|
|          98|   -5.265523|   -6.843790|    0.823766|    0.012126|
|          99|   -5.267499|   -6.845918|    0.823765|    0.012125|
|         100|   -5.269133|   -6.848176|    0.823763|    0.012124|
|         101|   -5.270463|   -6.850543|    0.823761|    0.012141|
+-----------------------------------------------------------------------+
|Fixed CL Mode                           |Value                         |
+-----------------------------------------------------------------------+
|Current CL                              |0.823761                      |
|Target CL                               |0.824                         |
|Previous AOA                            |2.78114                       |
|Changed AoA by                          |0.00118635                    |
+-----------------------------------------------------------------------+
+----------------------------------------------------------------+
|  Inner_Iter|    rms[Rho]|     rms[nu]|          CL|          CD|
+----------------------------------------------------------------+
|         102|   -3.119155|   -6.816501|    0.823759|    0.012140|
|         103|   -3.503784|   -6.836794|    0.823758|    0.012139|
|         104|   -3.748838|   -6.844664|    0.823756|    0.012139|
|         105|   -3.828804|   -6.850129|    0.823755|    0.012138|
|         106|   -3.883345|   -6.854761|    0.823754|    0.012137|
|         107|   -3.953963|   -6.858942|    0.823753|    0.012137|
|         108|   -4.041314|   -6.862795|    0.823752|    0.012136|
|         109|   -4.132498|   -6.866362|    0.823751|    0.012136|
|         110|   -4.210451|   -6.869669|    0.823751|    0.012136|
|         111|   -4.266372|   -6.872719|    0.823750|    0.012135|
|         112|   -4.302099|   -6.875521|    0.823750|    0.012135|
|         113|   -4.322002|   -6.878123|    0.823749|    0.012135|
|         114|   -4.330388|   -6.880596|    0.823749|    0.012135|
|         115|   -4.333325|   -6.883003|    0.823749|    0.012135|
|         116|   -4.337404|   -6.885372|    0.823748|    0.012135|
|         117|   -4.346943|   -6.887712|    0.823748|    0.012135|
|         118|   -4.362868|   -6.890033|    0.823748|    0.012135|
|         119|   -4.383304|   -6.892352|    0.823748|    0.012135|
|         120|   -4.405040|   -6.894695|    0.823748|    0.012135|
|         121|   -4.425356|   -6.897083|    0.823748|    0.012136|
|         122|   -4.443337|   -6.899523|    0.823747|    0.012136|
|         123|   -4.459819|   -6.902012|    0.823747|    0.012136|
|         124|   -4.476237|   -6.904539|    0.823747|    0.012137|
|         125|   -4.493507|   -6.907101|    0.823746|    0.012137|
|         126|   -4.511638|   -6.909698|    0.823746|    0.012137|
|         127|   -4.529951|   -6.912324|    0.823746|    0.012138|
|         128|   -4.547491|   -6.914982|    0.823745|    0.012138|
|         129|   -4.563355|   -6.917687|    0.823745|    0.012139|
|         130|   -4.576879|   -6.920450|    0.823744|    0.012139|
|         131|   -4.587769|   -6.923288|    0.823744|    0.012139|
|         132|   -4.596200|   -6.926222|    0.823743|    0.012140|
|         133|   -4.602835|   -6.929269|    0.823743|    0.012140|
|         134|   -4.608676|   -6.932444|    0.823743|    0.012141|
|         135|   -4.614812|   -6.935755|    0.823742|    0.012141|
|         136|   -4.622158|   -6.939211|    0.823742|    0.012142|
|         137|   -4.631291|   -6.942817|    0.823742|    0.012143|
|         138|   -4.642384|   -6.946577|    0.823742|    0.012143|
|         139|   -4.655195|   -6.950502|    0.823743|    0.012144|
|         140|   -4.669107|   -6.954597|    0.823743|    0.012145|
|         141|   -4.683219|   -6.958874|    0.823744|    0.012145|
|         142|   -4.696513|   -6.963347|    0.823745|    0.012146|
|         143|   -4.708106|   -6.968029|    0.823746|    0.012147|
|         144|   -4.717517|   -6.972929|    0.823747|    0.012148|
|         145|   -4.724814|   -6.978057|    0.823749|    0.012148|
|         146|   -4.730585|   -6.983419|    0.823750|    0.012149|
|         147|   -4.735719|   -6.989014|    0.823753|    0.012150|
|         148|   -4.741132|   -6.994829|    0.823755|    0.012151|
|         149|   -4.747549|   -7.000847|    0.823758|    0.012152|
|         150|   -4.755385|   -7.007058|    0.823761|    0.012153|
|         151|   -4.764717|   -7.013442|    0.823764|    0.012154|
|         152|   -4.775332|   -7.019973|    0.823768|    0.012155|
|         153|   -4.786815|   -7.026624|    0.823772|    0.012156|
|         154|   -4.798652|   -7.033363|    0.823777|    0.012157|
|         155|   -4.810350|   -7.040157|    0.823782|    0.012158|
|         156|   -4.821530|   -7.046974|    0.823787|    0.012160|
|         157|   -4.831993|   -7.053780|    0.823793|    0.012161|
|         158|   -4.841732|   -7.060544|    0.823799|    0.012162|
|         159|   -4.850891|   -7.067233|    0.823806|    0.012163|
|         160|   -4.859704|   -7.073820|    0.823813|    0.012164|
|         161|   -4.868420|   -7.080280|    0.823820|    0.012165|
|         162|   -4.877248|   -7.086598|    0.823827|    0.012166|
|         163|   -4.886334|   -7.092756|    0.823835|    0.012168|
|         164|   -4.895745|   -7.098751|    0.823843|    0.012169|
|         165|   -4.905490|   -7.104576|    0.823851|    0.012170|
|         166|   -4.915538|   -7.110225|    0.823859|    0.012171|
|         167|   -4.925838|   -7.115693|    0.823867|    0.012172|
|         168|   -4.936339|   -7.120974|    0.823875|    0.012173|
|         169|   -4.947000|   -7.126058|    0.823883|    0.012174|
|         170|   -4.957789|   -7.130925|    0.823891|    0.012175|
|         171|   -4.968684|   -7.135549|    0.823899|    0.012176|
|         172|   -4.979662|   -7.139900|    0.823907|    0.012177|
|         173|   -4.990694|   -7.143939|    0.823914|    0.012178|
|         174|   -5.001737|   -7.147626|    0.823921|    0.012179|
|         175|   -5.012737|   -7.150915|    0.823927|    0.012180|
|         176|   -5.023621|   -7.153759|    0.823933|    0.012180|
|         177|   -5.034309|   -7.156111|    0.823939|    0.012181|
|         178|   -5.044711|   -7.157925|    0.823944|    0.012182|
|         179|   -5.054734|   -7.159182|    0.823948|    0.012182|
|         180|   -5.064289|   -7.159876|    0.823952|    0.012183|
|         181|   -5.073295|   -7.160017|    0.823955|    0.012183|
|         182|   -5.081677|   -7.159630|    0.823958|    0.012183|
|         183|   -5.089377|   -7.158762|    0.823960|    0.012184|
|         184|   -5.096352|   -7.157479|    0.823961|    0.012184|
|         185|   -5.102574|   -7.155859|    0.823961|    0.012184|
|         186|   -5.108040|   -7.153997|    0.823961|    0.012184|
|         187|   -5.112764|   -7.151991|    0.823961|    0.012184|
|         188|   -5.116780|   -7.149942|    0.823959|    0.012184|
|         189|   -5.120140|   -7.147958|    0.823957|    0.012184|
|         190|   -5.122911|   -7.146142|    0.823955|    0.012184|
|         191|   -5.125173|   -7.144592|    0.823952|    0.012184|
|         192|   -5.127015|   -7.143393|    0.823948|    0.012184|
|         193|   -5.128528|   -7.142624|    0.823944|    0.012183|
|         194|   -5.129805|   -7.142352|    0.823940|    0.012183|
|         195|   -5.130936|   -7.142633|    0.823935|    0.012183|
|         196|   -5.132006|   -7.143509|    0.823930|    0.012182|
|         197|   -5.133093|   -7.145012|    0.823925|    0.012182|
|         198|   -5.134268|   -7.147164|    0.823920|    0.012181|
|         199|   -5.135593|   -7.149969|    0.823914|    0.012181|
|         200|   -5.137124|   -7.153423|    0.823908|    0.012180|
|         201|   -5.138906|   -7.157513|    0.823902|    0.012186|
+-----------------------------------------------------------------------+
|Fixed CL Mode                           |Value                         |
+-----------------------------------------------------------------------+
|Current CL                              |0.823902                      |
|Target CL                               |0.824                         |
|Previous AOA                            |2.78232                       |
|Changed AoA by                          |0.000460138                   |
+-----------------------------------------------------------------------+
+----------------------------------------------------------------+
|  Inner_Iter|    rms[Rho]|     rms[nu]|          CL|          CD|
+----------------------------------------------------------------+
|         202|   -3.530240|   -7.137938|    0.823896|    0.012186|
|         203|   -3.912063|   -7.154628|    0.823890|    0.012185|
|         204|   -4.149404|   -7.163772|    0.823883|    0.012184|
|         205|   -4.225646|   -7.171855|    0.823877|    0.012184|
|         206|   -4.278984|   -7.179857|    0.823871|    0.012183|
|         207|   -4.347985|   -7.187945|    0.823865|    0.012182|
|         208|   -4.432630|   -7.196106|    0.823859|    0.012181|
|         209|   -4.520699|   -7.204296|    0.823853|    0.012181|
|         210|   -4.597046|   -7.212450|    0.823847|    0.012180|
|         211|   -4.654343|   -7.220489|    0.823842|    0.012179|
|         212|   -4.693987|   -7.228338|    0.823837|    0.012178|
|         213|   -4.718859|   -7.235958|    0.823832|    0.012178|
|         214|   -4.731753|   -7.243328|    0.823827|    0.012177|
|         215|   -4.737794|   -7.250427|    0.823822|    0.012176|
|         216|   -4.743429|   -7.257222|    0.823818|    0.012175|
|         217|   -4.753317|   -7.263675|    0.823814|    0.012175|
|         218|   -4.768849|   -7.269767|    0.823811|    0.012174|
|         219|   -4.788613|   -7.275498|    0.823807|    0.012173|
|         220|   -4.809859|   -7.280889|    0.823805|    0.012173|
|         221|   -4.830244|   -7.285974|    0.823802|    0.012172|
|         222|   -4.849012|   -7.290789|    0.823800|    0.012171|
|         223|   -4.866888|   -7.295364|    0.823798|    0.012171|
|         224|   -4.885016|   -7.299731|    0.823797|    0.012170|
|         225|   -4.903950|   -7.303921|    0.823796|    0.012170|
|         226|   -4.923328|   -7.307970|    0.823796|    0.012169|
|         227|   -4.942127|   -7.311924|    0.823796|    0.012169|
|         228|   -4.959150|   -7.315825|    0.823796|    0.012168|
|         229|   -4.973431|   -7.319720|    0.823796|    0.012168|
|         230|   -4.984468|   -7.323657|    0.823797|    0.012167|
|         231|   -4.992298|   -7.327684|    0.823799|    0.012167|
|         232|   -4.997482|   -7.331845|    0.823801|    0.012167|
|         233|   -5.000986|   -7.336178|    0.823803|    0.012166|
|         234|   -5.003947|   -7.340713|    0.823805|    0.012166|
|         235|   -5.007412|   -7.345467|    0.823808|    0.012166|
|         236|   -5.012132|   -7.350450|    0.823811|    0.012166|
|         237|   -5.018461|   -7.355664|    0.823814|    0.012166|
|         238|   -5.026346|   -7.361104|    0.823818|    0.012166|
|         239|   -5.035372|   -7.366757|    0.823821|    0.012165|
|         240|   -5.044841|   -7.372608|    0.823825|    0.012165|
|         241|   -5.053901|   -7.378636|    0.823830|    0.012165|
|         242|   -5.061733|   -7.384818|    0.823834|    0.012165|
|         243|   -5.067761|   -7.391130|    0.823838|    0.012165|
|         244|   -5.071822|   -7.397551|    0.823843|    0.012165|
|         245|   -5.074208|   -7.404057|    0.823848|    0.012166|
|         246|   -5.075563|   -7.410632|    0.823853|    0.012166|
|         247|   -5.076673|   -7.417257|    0.823858|    0.012166|
|         248|   -5.078263|   -7.423921|    0.823863|    0.012166|
|         249|   -5.080857|   -7.430598|    0.823868|    0.012166|
|         250|   -5.084715|   -7.437265|    0.823873|    0.012166|
|         251|   -5.089847|   -7.443896|    0.823878|    0.012166|
|         252|   -5.096068|   -7.450481|    0.823883|    0.012167|
|         253|   -5.103074|   -7.457006|    0.823889|    0.012167|
|         254|   -5.110527|   -7.463453|    0.823894|    0.012167|
|         255|   -5.118134|   -7.469808|    0.823899|    0.012167|
|         256|   -5.125695|   -7.476048|    0.823904|    0.012167|
|         257|   -5.133131|   -7.482145|    0.823910|    0.012168|
|         258|   -5.140473|   -7.488065|    0.823915|    0.012168|
|         259|   -5.147833|   -7.493770|    0.823920|    0.012168|
|         260|   -5.155358|   -7.499219|    0.823925|    0.012168|
|         261|   -5.163193|   -7.504365|    0.823930|    0.012169|
|         262|   -5.171448|   -7.509164|    0.823935|    0.012169|
|         263|   -5.180188|   -7.513575|    0.823941|    0.012169|
|         264|   -5.189429|   -7.517560|    0.823946|    0.012170|
|         265|   -5.199149|   -7.521091|    0.823951|    0.012170|
|         266|   -5.209299|   -7.524156|    0.823956|    0.012170|
|         267|   -5.219816|   -7.526756|    0.823960|    0.012170|
|         268|   -5.230635|   -7.528910|    0.823965|    0.012171|
|         269|   -5.241690|   -7.530655|    0.823970|    0.012171|
|         270|   -5.252917|   -7.532045|    0.823975|    0.012171|
|         271|   -5.264252|   -7.533152|    0.823979|    0.012171|
|         272|   -5.275623|   -7.534056|    0.823983|    0.012172|
|         273|   -5.286948|   -7.534850|    0.823988|    0.012172|
|         274|   -5.298131|   -7.535621|    0.823992|    0.012172|
|         275|   -5.309061|   -7.536456|    0.823996|    0.012173|
|         276|   -5.319614|   -7.537435|    0.823999|    0.012173|
|         277|   -5.329658|   -7.538626|    0.824003|    0.012173|
|         278|   -5.339058|   -7.540084|    0.824006|    0.012173|
|         279|   -5.347685|   -7.541848|    0.824009|    0.012174|
|         280|   -5.355424|   -7.543936|    0.824012|    0.012174|
|         281|   -5.362178|   -7.546346|    0.824014|    0.012174|
|         282|   -5.367877|   -7.549056|    0.824017|    0.012175|
|         283|   -5.372482|   -7.552022|    0.824019|    0.012175|
|         284|   -5.375983|   -7.555183|    0.824020|    0.012175|
|         285|   -5.378407|   -7.558461|    0.824022|    0.012175|
|         286|   -5.379806|   -7.561768|    0.824023|    0.012176|
|         287|   -5.380261|   -7.565008|    0.824024|    0.012176|
|         288|   -5.379870|   -7.568081|    0.824024|    0.012176|
|         289|   -5.378749|   -7.570895|    0.824025|    0.012176|
|         290|   -5.377017|   -7.573369|    0.824025|    0.012177|
|         291|   -5.374799|   -7.575437|    0.824025|    0.012177|
|         292|   -5.372214|   -7.577058|    0.824024|    0.012177|
|         293|   -5.369376|   -7.578215|    0.824023|    0.012177|
|         294|   -5.366390|   -7.578920|    0.824022|    0.012177|
|         295|   -5.363347|   -7.579210|    0.824021|    0.012178|
|         296|   -5.360331|   -7.579142|    0.824020|    0.012178|
|         297|   -5.357410|   -7.578791|    0.824018|    0.012178|
|         298|   -5.354644|   -7.578242|    0.824016|    0.012178|
|         299|   -5.352080|   -7.577581|    0.824014|    0.012178|
|         300|   -5.349759|   -7.576890|    0.824012|    0.012178|
|         301|   -5.347710|   -7.576242|    0.824010|    0.012177|
+-----------------------------------------------------------------------+
|Fixed CL Mode                           |Value                         |
+-----------------------------------------------------------------------+
|Current CL                              |0.82401                       |
|Target CL                               |0.824                         |
|Previous AOA                            |2.78278                       |
|Changed AoA by                          |-5.99923e-05                  |
+-----------------------------------------------------------------------+
+----------------------------------------------------------------+
|  Inner_Iter|    rms[Rho]|     rms[nu]|          CL|          CD|
+----------------------------------------------------------------+
|         302|   -4.412597|   -7.573352|    0.824007|    0.012177|
|         303|   -4.791809|   -7.574363|    0.824005|    0.012177|
|         304|   -5.030824|   -7.574481|    0.824002|    0.012177|
|         305|   -5.105234|   -7.574524|    0.823999|    0.012177|
|         306|   -5.145050|   -7.574594|    0.823996|    0.012177|
|         307|   -5.187602|   -7.574676|    0.823993|    0.012177|
|         308|   -5.230121|   -7.574708|    0.823990|    0.012177|
|         309|   -5.261928|   -7.574611|    0.823988|    0.012177|
|         310|   -5.278504|   -7.574295|    0.823985|    0.012177|
|         311|   -5.284164|   -7.573666|    0.823982|    0.012177|
|         312|   -5.284863|   -7.572636|    0.823979|    0.012176|
|         313|   -5.283979|   -7.571130|    0.823976|    0.012176|
|         314|   -5.283084|   -7.569092|    0.823973|    0.012176|
|         315|   -5.283298|   -7.566491|    0.823971|    0.012176|
|         316|   -5.285510|   -7.563315|    0.823968|    0.012175|
|         317|   -5.290058|   -7.559584|    0.823966|    0.012175|
|         318|   -5.296553|   -7.555343|    0.823964|    0.012175|
|         319|   -5.304080|   -7.550662|    0.823962|    0.012174|
|         320|   -5.311655|   -7.545634|    0.823960|    0.012174|
|         321|   -5.318645|   -7.540364|    0.823958|    0.012174|
|         322|   -5.324937|   -7.534970|    0.823956|    0.012173|
|         323|   -5.330809|   -7.529569|    0.823955|    0.012173|
|         324|   -5.336657|   -7.524278|    0.823954|    0.012173|
|         325|   -5.342787|   -7.519206|    0.823953|    0.012172|
|         326|   -5.349339|   -7.514451|    0.823952|    0.012172|
|         327|   -5.356314|   -7.510099|    0.823951|    0.012172|
|         328|   -5.363621|   -7.506218|    0.823951|    0.012171|
|         329|   -5.371124|   -7.502865|    0.823950|    0.012171|
|         330|   -5.378669|   -7.500077|    0.823950|    0.012171|
|         331|   -5.386110|   -7.497878|    0.823950|    0.012170|
|         332|   -5.393340|   -7.496278|    0.823950|    0.012170|
|         333|   -5.400318|   -7.495272|    0.823951|    0.012170|
|         334|   -5.407069|   -7.494842|    0.823951|    0.012169|
|         335|   -5.413668|   -7.494961|    0.823952|    0.012169|
|         336|   -5.420205|   -7.495590|    0.823952|    0.012169|
|         337|   -5.426751|   -7.496679|    0.823953|    0.012169|
|         338|   -5.433335|   -7.498175|    0.823954|    0.012168|
|         339|   -5.439929|   -7.500015|    0.823955|    0.012168|
|         340|   -5.446448|   -7.502135|    0.823956|    0.012168|
|         341|   -5.452766|   -7.504467|    0.823957|    0.012168|
|         342|   -5.458735|   -7.506944|    0.823958|    0.012167|
|         343|   -5.464214|   -7.509501|    0.823959|    0.012167|
|         344|   -5.469096|   -7.512077|    0.823960|    0.012167|
|         345|   -5.473319|   -7.514619|    0.823961|    0.012167|
|         346|   -5.476872|   -7.517081|    0.823963|    0.012167|
|         347|   -5.479777|   -7.519426|    0.823964|    0.012166|
|         348|   -5.482077|   -7.521629|    0.823965|    0.012166|
|         349|   -5.483812|   -7.523674|    0.823966|    0.012166|
|         350|   -5.485011|   -7.525556|    0.823967|    0.012166|
|         351|   -5.485688|   -7.527279|    0.823968|    0.012166|
|         352|   -5.485846|   -7.528854|    0.823969|    0.012166|
|         353|   -5.485487|   -7.530302|    0.823970|    0.012165|
|         354|   -5.484622|   -7.531647|    0.823970|    0.012165|
|         355|   -5.483277|   -7.532916|    0.823971|    0.012165|
|         356|   -5.481499|   -7.534135|    0.823972|    0.012165|
|         357|   -5.479352|   -7.535332|    0.823972|    0.012165|
|         358|   -5.476915|   -7.536531|    0.823973|    0.012165|
|         359|   -5.474275|   -7.537755|    0.823974|    0.012165|
|         360|   -5.471519|   -7.539023|    0.823974|    0.012164|
|         361|   -5.468733|   -7.540349|    0.823974|    0.012164|
|         362|   -5.465994|   -7.541743|    0.823975|    0.012164|
|         363|   -5.463372|   -7.543210|    0.823975|    0.012164|
|         364|   -5.460926|   -7.544752|    0.823975|    0.012164|
|         365|   -5.458709|   -7.546366|    0.823976|    0.012164|
|         366|   -5.456769|   -7.548048|    0.823976|    0.012164|
|         367|   -5.455143|   -7.549789|    0.823976|    0.012163|
|         368|   -5.453868|   -7.551581|    0.823976|    0.012163|
|         369|   -5.452974|   -7.553414|    0.823976|    0.012163|
|         370|   -5.452485|   -7.555279|    0.823977|    0.012163|
|         371|   -5.452422|   -7.557164|    0.823977|    0.012163|
|         372|   -5.452804|   -7.559064|    0.823977|    0.012163|
|         373|   -5.453641|   -7.560971|    0.823977|    0.012163|
|         374|   -5.454943|   -7.562880|    0.823977|    0.012163|
|         375|   -5.456714|   -7.564787|    0.823978|    0.012163|
|         376|   -5.458956|   -7.566691|    0.823978|    0.012163|
|         377|   -5.461664|   -7.568591|    0.823978|    0.012163|
|         378|   -5.464832|   -7.570487|    0.823979|    0.012163|
|         379|   -5.468450|   -7.572381|    0.823979|    0.012163|
|         380|   -5.472504|   -7.574273|    0.823979|    0.012162|
|         381|   -5.476974|   -7.576163|    0.823980|    0.012162|
|         382|   -5.481838|   -7.578052|    0.823980|    0.012162|
|         383|   -5.487070|   -7.579938|    0.823981|    0.012162|
|         384|   -5.492636|   -7.581819|    0.823981|    0.012162|
|         385|   -5.498503|   -7.583689|    0.823981|    0.012162|
|         386|   -5.504628|   -7.585544|    0.823982|    0.012162|
|         387|   -5.510966|   -7.587376|    0.823982|    0.012162|
|         388|   -5.517469|   -7.589178|    0.823983|    0.012163|
|         389|   -5.524083|   -7.590940|    0.823983|    0.012163|
|         390|   -5.530752|   -7.592652|    0.823984|    0.012163|
|         391|   -5.537417|   -7.594305|    0.823984|    0.012163|
|         392|   -5.544015|   -7.595891|    0.823984|    0.012163|
|         393|   -5.550487|   -7.597401|    0.823985|    0.012163|
|         394|   -5.556769|   -7.598829|    0.823985|    0.012163|
|         395|   -5.562802|   -7.600172|    0.823985|    0.012163|
|         396|   -5.568531|   -7.601428|    0.823985|    0.012163|
|         397|   -5.573903|   -7.602598|    0.823985|    0.012163|
|         398|   -5.578875|   -7.603682|    0.823986|    0.012163|
|         399|   -5.583408|   -7.604687|    0.823986|    0.012163|
|         400|   -5.587476|   -7.605619|    0.823986|    0.012163|
|         401|   -5.591060|   -7.606486|    0.823986|    0.012164|
+-----------------------------------------------------------------------+
|Fixed CL Mode                           |Value                         |
+-----------------------------------------------------------------------+
|Current CL                              |0.823986                      |
|Target CL                               |0.824                         |
|Previous AOA                            |2.78272                       |
|Changed AoA by                          |7.20592e-05                   |
+-----------------------------------------------------------------------+
+----------------------------------------------------------------+
|  Inner_Iter|    rms[Rho]|     rms[nu]|          CL|          CD|
+----------------------------------------------------------------+
|         402|   -4.335052|   -7.602283|    0.823985|    0.012164|
|         403|   -4.715470|   -7.605442|    0.823985|    0.012164|
|         404|   -4.947472|   -7.606869|    0.823985|    0.012164|
|         405|   -5.017958|   -7.607955|    0.823985|    0.012164|
|         406|   -5.065816|   -7.608919|    0.823985|    0.012164|
|         407|   -5.127676|   -7.609821|    0.823984|    0.012164|
|         408|   -5.201957|   -7.610683|    0.823984|    0.012164|
|         409|   -5.276099|   -7.611523|    0.823983|    0.012164|
|         410|   -5.336989|   -7.612352|    0.823983|    0.012164|
|         411|   -5.380157|   -7.613178|    0.823983|    0.012164|
|         412|   -5.408375|   -7.614004|    0.823982|    0.012164|
|         413|   -5.425053|   -7.614839|    0.823982|    0.012164|
|         414|   -5.433032|   -7.615691|    0.823981|    0.012164|
|         415|   -5.436147|   -7.616570|    0.823981|    0.012164|
|         416|   -5.438670|   -7.617478|    0.823980|    0.012164|
|         417|   -5.443516|   -7.618419|    0.823979|    0.012164|
|         418|   -5.451389|   -7.619397|    0.823979|    0.012164|
|         419|   -5.461217|   -7.620417|    0.823978|    0.012164|
|         420|   -5.471266|   -7.621486|    0.823978|    0.012164|
|         421|   -5.480266|   -7.622611|    0.823977|    0.012164|
|         422|   -5.487933|   -7.623796|    0.823977|    0.012164|
|         423|   -5.494733|   -7.625045|    0.823976|    0.012164|
|         424|   -5.501261|   -7.626361|    0.823976|    0.012164|
|         425|   -5.507801|   -7.627746|    0.823975|    0.012164|
|         426|   -5.514262|   -7.629203|    0.823974|    0.012163|
|         427|   -5.520360|   -7.630734|    0.823974|    0.012163|
|         428|   -5.525827|   -7.632340|    0.823973|    0.012163|
|         429|   -5.530514|   -7.634023|    0.823973|    0.012163|
|         430|   -5.534407|   -7.635784|    0.823972|    0.012163|
|         431|   -5.537607|   -7.637621|    0.823972|    0.012163|
|         432|   -5.540309|   -7.639533|    0.823971|    0.012163|
|         433|   -5.542778|   -7.641516|    0.823971|    0.012163|
|         434|   -5.545316|   -7.643566|    0.823970|    0.012163|
|         435|   -5.548198|   -7.645678|    0.823970|    0.012163|
|         436|   -5.551629|   -7.647845|    0.823969|    0.012163|
|         437|   -5.555702|   -7.650061|    0.823969|    0.012163|
|         438|   -5.560399|   -7.652319|    0.823969|    0.012163|
|         439|   -5.565602|   -7.654613|    0.823968|    0.012163|
|         440|   -5.571117|   -7.656936|    0.823968|    0.012163|
|         441|   -5.576720|   -7.659284|    0.823967|    0.012163|
|         442|   -5.582201|   -7.661651|    0.823967|    0.012163|
|         443|   -5.587416|   -7.664035|    0.823967|    0.012163|
|         444|   -5.592317|   -7.666432|    0.823966|    0.012163|
|         445|   -5.596962|   -7.668843|    0.823966|    0.012163|
|         446|   -5.601499|   -7.671266|    0.823966|    0.012163|
|         447|   -5.606123|   -7.673702|    0.823966|    0.012163|
|         448|   -5.611025|   -7.676155|    0.823966|    0.012163|
|         449|   -5.616349|   -7.678626|    0.823965|    0.012163|
|         450|   -5.622175|   -7.681121|    0.823965|    0.012163|
|         451|   -5.628505|   -7.683646|    0.823965|    0.012163|
|         452|   -5.635280|   -7.686207|    0.823965|    0.012163|
|         453|   -5.642398|   -7.688812|    0.823965|    0.012163|
|         454|   -5.649740|   -7.691471|    0.823965|    0.012163|
|         455|   -5.657197|   -7.694192|    0.823965|    0.012163|
|         456|   -5.664677|   -7.696987|    0.823965|    0.012163|
|         457|   -5.672121|   -7.699866|    0.823966|    0.012163|
|         458|   -5.679498|   -7.702842|    0.823966|    0.012163|
|         459|   -5.686793|   -7.705927|    0.823966|    0.012163|
|         460|   -5.694002|   -7.709133|    0.823966|    0.012163|
|         461|   -5.701115|   -7.712474|    0.823967|    0.012163|
|         462|   -5.708112|   -7.715961|    0.823967|    0.012163|
|         463|   -5.714956|   -7.719607|    0.823968|    0.012163|
|         464|   -5.721598|   -7.723421|    0.823968|    0.012164|
|         465|   -5.727976|   -7.727412|    0.823968|    0.012164|
|         466|   -5.734027|   -7.731588|    0.823969|    0.012164|
|         467|   -5.739688|   -7.735953|    0.823969|    0.012164|
|         468|   -5.744904|   -7.740510|    0.823970|    0.012164|
|         469|   -5.749629|   -7.745258|    0.823970|    0.012164|
|         470|   -5.753831|   -7.750193|    0.823971|    0.012164|
|         471|   -5.757491|   -7.755306|    0.823971|    0.012164|
|         472|   -5.760603|   -7.760588|    0.823972|    0.012164|
|         473|   -5.763172|   -7.766023|    0.823972|    0.012164|
|         474|   -5.765214|   -7.771592|    0.823973|    0.012164|
|         475|   -5.766756|   -7.777275|    0.823973|    0.012164|
|         476|   -5.767834|   -7.783047|    0.823974|    0.012164|
|         477|   -5.768492|   -7.788883|    0.823974|    0.012164|
|         478|   -5.768782|   -7.794756|    0.823974|    0.012164|
|         479|   -5.768762|   -7.800638|    0.823975|    0.012164|
|         480|   -5.768494|   -7.806504|    0.823975|    0.012164|
|         481|   -5.768042|   -7.812329|    0.823975|    0.012164|
|         482|   -5.767472|   -7.818091|    0.823975|    0.012164|
|         483|   -5.766848|   -7.823773|    0.823975|    0.012164|
|         484|   -5.766234|   -7.829362|    0.823975|    0.012164|
|         485|   -5.765689|   -7.834850|    0.823975|    0.012164|
|         486|   -5.765271|   -7.840234|    0.823975|    0.012164|
|         487|   -5.765030|   -7.845517|    0.823975|    0.012164|
|         488|   -5.765015|   -7.850708|    0.823975|    0.012164|
|         489|   -5.765267|   -7.855819|    0.823975|    0.012164|
|         490|   -5.765825|   -7.860870|    0.823974|    0.012164|
|         491|   -5.766719|   -7.865878|    0.823974|    0.012164|
|         492|   -5.767977|   -7.870868|    0.823974|    0.012164|
|         493|   -5.769620|   -7.875863|    0.823973|    0.012164|
|         494|   -5.771666|   -7.880886|    0.823973|    0.012164|
|         495|   -5.774127|   -7.885959|    0.823972|    0.012164|
|         496|   -5.777011|   -7.891103|    0.823972|    0.012164|
|         497|   -5.780321|   -7.896335|    0.823971|    0.012163|
|         498|   -5.784057|   -7.901669|    0.823971|    0.012163|
|         499|   -5.788215|   -7.907114|    0.823970|    0.012163|
|         500|   -5.792786|   -7.912676|    0.823970|    0.012163|
|         501|   -5.797758|   -7.918353|    0.823969|    0.012165|
+-----------------------------------------------------------------------+
|Fixed CL Mode                           |Value                         |
+-----------------------------------------------------------------------+
|Current CL                              |0.823969                      |
|Target CL                               |0.824                         |
|Previous AOA                            |2.78279                       |
|Changed AoA by                          |0.000152418                   |
+-----------------------------------------------------------------------+
+----------------------------------------------------------------+
|  Inner_Iter|    rms[Rho]|     rms[nu]|          CL|          CD|
+----------------------------------------------------------------+
|         502|   -4.010307|   -7.846731|    0.823968|    0.012165|
|         503|   -4.394516|   -7.887368|    0.823967|    0.012165|
|         504|   -4.637484|   -7.904415|    0.823967|    0.012165|
|         505|   -4.715363|   -7.916552|    0.823966|    0.012164|
|         506|   -4.768433|   -7.926951|    0.823965|    0.012164|
|         507|   -4.837552|   -7.936352|    0.823965|    0.012164|
|         508|   -4.923140|   -7.944994|    0.823964|    0.012164|
|         509|   -5.012678|   -7.953007|    0.823963|    0.012164|
|         510|   -5.090111|   -7.960490|    0.823963|    0.012164|
|         511|   -5.147298|   -7.967454|    0.823962|    0.012164|
|         512|   -5.185664|   -7.973914|    0.823961|    0.012163|
|         513|   -5.208666|   -7.979970|    0.823960|    0.012163|
|         514|   -5.219776|   -7.985774|    0.823960|    0.012163|
|         515|   -5.224621|   -7.991443|    0.823959|    0.012163|
|         516|   -5.229810|   -7.997001|    0.823959|    0.012163|
|         517|   -5.239910|   -8.002424|    0.823958|    0.012163|
|         518|   -5.256108|   -8.007681|    0.823957|    0.012162|
|         519|   -5.276732|   -8.012776|    0.823957|    0.012162|
|         520|   -5.298730|   -8.017728|    0.823956|    0.012162|
|         521|   -5.319496|   -8.022560|    0.823956|    0.012162|
|         522|   -5.338158|   -8.027264|    0.823955|    0.012162|
|         523|   -5.355523|   -8.031801|    0.823954|    0.012162|
|         524|   -5.372934|   -8.036119|    0.823954|    0.012161|
|         525|   -5.391172|   -8.040173|    0.823954|    0.012161|
|         526|   -5.410076|   -8.043936|    0.823953|    0.012161|
|         527|   -5.428789|   -8.047403|    0.823953|    0.012161|
|         528|   -5.446209|   -8.050588|    0.823952|    0.012161|
|         529|   -5.461373|   -8.053515|    0.823952|    0.012161|
|         530|   -5.473675|   -8.056221|    0.823952|    0.012161|
|         531|   -5.482981|   -8.058743|    0.823951|    0.012161|
|         532|   -5.489688|   -8.061118|    0.823951|    0.012161|
|         533|   -5.494658|   -8.063384|    0.823951|    0.012160|
|         534|   -5.499026|   -8.065551|    0.823951|    0.012160|
|         535|   -5.503920|   -8.067629|    0.823950|    0.012160|
|         536|   -5.510224|   -8.069628|    0.823950|    0.012160|
|         537|   -5.518442|   -8.071542|    0.823950|    0.012160|
|         538|   -5.528655|   -8.073356|    0.823950|    0.012160|
|         539|   -5.540535|   -8.075062|    0.823950|    0.012160|
|         540|   -5.553402|   -8.076653|    0.823950|    0.012160|
|         541|   -5.566323|   -8.078129|    0.823950|    0.012160|
|         542|   -5.578293|   -8.079489|    0.823950|    0.012160|
|         543|   -5.588482|   -8.080742|    0.823950|    0.012160|
|         544|   -5.596480|   -8.081900|    0.823950|    0.012160|
|         545|   -5.602420|   -8.082978|    0.823950|    0.012160|
|         546|   -5.606921|   -8.083992|    0.823951|    0.012160|
|         547|   -5.610859|   -8.084953|    0.823951|    0.012160|
|         548|   -5.615114|   -8.085874|    0.823951|    0.012160|
|         549|   -5.620362|   -8.086767|    0.823951|    0.012160|
|         550|   -5.626975|   -8.087648|    0.823952|    0.012160|
|         551|   -5.635015|   -8.088527|    0.823952|    0.012160|
|         552|   -5.644275|   -8.089408|    0.823953|    0.012160|
|         553|   -5.654378|   -8.090298|    0.823953|    0.012160|
|         554|   -5.664871|   -8.091201|    0.823954|    0.012160|
|         555|   -5.675334|   -8.092122|    0.823954|    0.012161|
|         556|   -5.685465|   -8.093072|    0.823955|    0.012161|
|         557|   -5.695121|   -8.094069|    0.823955|    0.012161|
|         558|   -5.704329|   -8.095133|    0.823956|    0.012161|
|         559|   -5.713242|   -8.096284|    0.823957|    0.012161|
|         560|   -5.722081|   -8.097545|    0.823958|    0.012161|
|         561|   -5.731077|   -8.098941|    0.823958|    0.012161|
|         562|   -5.740422|   -8.100495|    0.823959|    0.012161|
|         563|   -5.750249|   -8.102235|    0.823960|    0.012162|
|         564|   -5.760627|   -8.104192|    0.823961|    0.012162|
|         565|   -5.771571|   -8.106391|    0.823962|    0.012162|
|         566|   -5.783065|   -8.108857|    0.823963|    0.012162|
|         567|   -5.795076|   -8.111610|    0.823963|    0.012162|
|         568|   -5.807574|   -8.114665|    0.823964|    0.012162|
|         569|   -5.820540|   -8.118026|    0.823965|    0.012162|
|         570|   -5.833964|   -8.121688|    0.823966|    0.012163|
|         571|   -5.847846|   -8.125632|    0.823967|    0.012163|
|         572|   -5.862187|   -8.129826|    0.823968|    0.012163|
|         573|   -5.876981|   -8.134219|    0.823968|    0.012163|
|         574|   -5.892209|   -8.138748|    0.823969|    0.012163|
|         575|   -5.907836|   -8.143331|    0.823970|    0.012163|
|         576|   -5.923806|   -8.147870|    0.823970|    0.012164|
|         577|   -5.940043|   -8.152255|    0.823971|    0.012164|
|         578|   -5.956455|   -8.156370|    0.823971|    0.012164|
|         579|   -5.972931|   -8.160088|    0.823972|    0.012164|
|         580|   -5.989350|   -8.163292|    0.823972|    0.012164|
|         581|   -6.005577|   -8.165874|    0.823972|    0.012164|
|         582|   -6.021472|   -8.167747|    0.823972|    0.012164|
|         583|   -6.036890|   -8.168848|    0.823972|    0.012165|
|         584|   -6.051686|   -8.169149|    0.823972|    0.012165|
|         585|   -6.065722|   -8.168658|    0.823972|    0.012165|
|         586|   -6.078873|   -8.167422|    0.823972|    0.012165|
|         587|   -6.091034|   -8.165520|    0.823972|    0.012165|
|         588|   -6.102126|   -8.163065|    0.823971|    0.012165|
|         589|   -6.112101|   -8.160192|    0.823971|    0.012165|
|         590|   -6.120944|   -8.157051|    0.823970|    0.012165|
|         591|   -6.128677|   -8.153800|    0.823970|    0.012165|
|         592|   -6.135352|   -8.150596|    0.823969|    0.012165|
|         593|   -6.141047|   -8.147592|    0.823968|    0.012165|
|         594|   -6.145861|   -8.144928|    0.823967|    0.012165|
|         595|   -6.149906|   -8.142732|    0.823967|    0.012165|
|         596|   -6.153300|   -8.141115|    0.823966|    0.012165|
|         597|   -6.156162|   -8.140169|    0.823965|    0.012165|
|         598|   -6.158605|   -8.139973|    0.823964|    0.012165|
|         599|   -6.160736|   -8.140582|    0.823963|    0.012165|
|         600|   -6.162651|   -8.142039|    0.823962|    0.012165|
|         601|   -6.164438|   -8.144367|    0.823961|    0.012168|
+-----------------------------------------------------------------------+
|Fixed CL Mode                           |Value                         |
+-----------------------------------------------------------------------+
|Current CL                              |0.823961                      |
|Target CL                               |0.824                         |
|Previous AOA                            |2.78295                       |
|Changed AoA by                          |0.000191628                   |
+-----------------------------------------------------------------------+
+----------------------------------------------------------------+
|  Inner_Iter|    rms[Rho]|     rms[nu]|          CL|          CD|
+----------------------------------------------------------------+
|         602|   -3.910888|   -7.917576|    0.823960|    0.012168|
|         603|   -4.294864|   -8.007194|    0.823958|    0.012168|
|         604|   -4.537531|   -8.043985|    0.823957|    0.012168|
|         605|   -4.615782|   -8.068363|    0.823956|    0.012168|
|         606|   -4.669463|   -8.088617|    0.823955|    0.012168|
|         607|   -4.739315|   -8.106743|    0.823954|    0.012168|
|         608|   -4.825910|   -8.123292|    0.823953|    0.012168|
|         609|   -4.916867|   -8.138510|    0.823952|    0.012168|
|         610|   -4.996010|   -8.152501|    0.823951|    0.012168|
|         611|   -5.054828|   -8.165128|    0.823950|    0.012168|
|         612|   -5.094432|   -8.176257|    0.823949|    0.012167|
|         613|   -5.118119|   -8.186119|    0.823948|    0.012167|
|         614|   -5.129367|   -8.195218|    0.823947|    0.012167|
|         615|   -5.134022|   -8.203932|    0.823946|    0.012167|
|         616|   -5.138988|   -8.212318|    0.823945|    0.012167|
|         617|   -5.149027|   -8.220222|    0.823944|    0.012167|
|         618|   -5.165385|   -8.227507|    0.823944|    0.012167|
|         619|   -5.186346|   -8.234197|    0.823943|    0.012167|
|         620|   -5.208762|   -8.240424|    0.823942|    0.012166|
|         621|   -5.229926|   -8.246311|    0.823942|    0.012166|
|         622|   -5.248934|   -8.251887|    0.823941|    0.012166|
|         623|   -5.266632|   -8.257033|    0.823941|    0.012166|
|         624|   -5.284435|   -8.261538|    0.823940|    0.012166|
|         625|   -5.303178|   -8.265226|    0.823940|    0.012166|
|         626|   -5.322715|   -8.267980|    0.823939|    0.012165|
|         627|   -5.342164|   -8.269757|    0.823939|    0.012165|
|         628|   -5.360373|   -8.270629|    0.823939|    0.012165|
|         629|   -5.376313|   -8.270703|    0.823939|    0.012165|
|         630|   -5.389310|   -8.270141|    0.823939|    0.012165|
|         631|   -5.399179|   -8.269107|    0.823939|    0.012165|
|         632|   -5.406294|   -8.267762|    0.823939|    0.012165|
|         633|   -5.411538|   -8.266226|    0.823939|    0.012164|
|         634|   -5.416100|   -8.264605|    0.823939|    0.012164|
|         635|   -5.421179|   -8.262948|    0.823939|    0.012164|
|         636|   -5.427726|   -8.261267|    0.823939|    0.012164|
|         637|   -5.436293|   -8.259548|    0.823939|    0.012164|
|         638|   -5.446991|   -8.257762|    0.823940|    0.012164|
|         639|   -5.459500|   -8.255893|    0.823940|    0.012164|
|         640|   -5.473117|   -8.253901|    0.823940|    0.012164|
|         641|   -5.486859|   -8.251780|    0.823941|    0.012163|
|         642|   -5.499649|   -8.249539|    0.823941|    0.012163|
|         643|   -5.510582|   -8.247218|    0.823942|    0.012163|
|         644|   -5.519200|   -8.244868|    0.823943|    0.012163|
|         645|   -5.525639|   -8.242545|    0.823943|    0.012163|
|         646|   -5.530567|   -8.240308|    0.823944|    0.012163|
|         647|   -5.534947|   -8.238191|    0.823945|    0.012163|
|         648|   -5.539748|   -8.236217|    0.823945|    0.012163|
|         649|   -5.545721|   -8.234401|    0.823946|    0.012163|
|         650|   -5.553289|   -8.232765|    0.823947|    0.012163|
|         651|   -5.562533|   -8.231316|    0.823948|    0.012163|
|         652|   -5.573241|   -8.230052|    0.823949|    0.012163|
|         653|   -5.585002|   -8.228946|    0.823950|    0.012163|
|         654|   -5.597311|   -8.227963|    0.823951|    0.012163|
|         655|   -5.609683|   -8.227069|    0.823952|    0.012163|
|         656|   -5.621755|   -8.226249|    0.823953|    0.012163|
|         657|   -5.633338|   -8.225489|    0.823954|    0.012163|
|         658|   -5.644437|   -8.224776|    0.823956|    0.012163|
|         659|   -5.655210|   -8.224105|    0.823957|    0.012163|
|         660|   -5.665903|   -8.223479|    0.823958|    0.012163|
|         661|   -5.676778|   -8.222916|    0.823960|    0.012163|
|         662|   -5.688062|   -8.222439|    0.823961|    0.012163|
|         663|   -5.699912|   -8.222086|    0.823962|    0.012163|
|         664|   -5.712412|   -8.221907|    0.823964|    0.012163|
|         665|   -5.725578|   -8.221959|    0.823965|    0.012163|
|         666|   -5.739387|   -8.222301|    0.823967|    0.012163|
|         667|   -5.753792|   -8.222994|    0.823968|    0.012163|
|         668|   -5.768748|   -8.224093|    0.823970|    0.012163|
|         669|   -5.784218|   -8.225644|    0.823971|    0.012163|
|         670|   -5.800177|   -8.227675|    0.823973|    0.012163|
|         671|   -5.816610|   -8.230195|    0.823974|    0.012163|
|         672|   -5.833498|   -8.233184|    0.823976|    0.012163|
|         673|   -5.850813|   -8.236592|    0.823977|    0.012163|
|         674|   -5.868505|   -8.240331|    0.823978|    0.012163|
|         675|   -5.886492|   -8.244275|    0.823979|    0.012164|
|         676|   -5.904663|   -8.248261|    0.823981|    0.012164|
|         677|   -5.922872|   -8.252086|    0.823982|    0.012164|
|         678|   -5.940942|   -8.255515|    0.823983|    0.012164|
|         679|   -5.958671|   -8.258296|    0.823984|    0.012164|
|         680|   -5.975841|   -8.260169|    0.823984|    0.012164|
|         681|   -5.992224|   -8.260899|    0.823985|    0.012164|
|         682|   -6.007596|   -8.260289|    0.823986|    0.012164|
|         683|   -6.021751|   -8.258211|    0.823986|    0.012164|
|         684|   -6.034511|   -8.254617|    0.823986|    0.012164|
|         685|   -6.045745|   -8.249552|    0.823987|    0.012164|
|         686|   -6.055375|   -8.243147|    0.823987|    0.012164|
|         687|   -6.063384|   -8.235611|    0.823987|    0.012165|
|         688|   -6.069821|   -8.227206|    0.823987|    0.012165|
|         689|   -6.074787|   -8.218229|    0.823986|    0.012165|
|         690|   -6.078434|   -8.208983|    0.823986|    0.012165|
|         691|   -6.080944|   -8.199764|    0.823986|    0.012165|
|         692|   -6.082518|   -8.190847|    0.823985|    0.012165|
|         693|   -6.083360|   -8.182473|    0.823985|    0.012165|
|         694|   -6.083666|   -8.174850|    0.823984|    0.012165|
|         695|   -6.083616|   -8.168152|    0.823983|    0.012165|
|         696|   -6.083367|   -8.162517|    0.823982|    0.012165|
|         697|   -6.083051|   -8.158050|    0.823981|    0.012165|
|         698|   -6.082779|   -8.154826|    0.823980|    0.012165|
|         699|   -6.082634|   -8.152896|    0.823979|    0.012165|
|         700|   -6.082682|   -8.152280|    0.823978|    0.012165|
|         701|   -6.082970|   -8.152978|    0.823977|    0.012167|
+-----------------------------------------------------------------------+
|Fixed CL Mode                           |Value                         |
+-----------------------------------------------------------------------+
|Current CL                              |0.823977                      |
|Target CL                               |0.824                         |
|Previous AOA                            |2.78314                       |
|Changed AoA by                          |0.000108435                   |
+-----------------------------------------------------------------------+
+----------------------------------------------------------------+
|  Inner_Iter|    rms[Rho]|     rms[nu]|          CL|          CD|
+----------------------------------------------------------------+
|         702|   -4.158096|   -8.048034|    0.823976|    0.012167|
|         703|   -4.540884|   -8.097398|    0.823975|    0.012167|
|         704|   -4.780076|   -8.116985|    0.823974|    0.012167|
|         705|   -4.856555|   -8.130912|    0.823972|    0.012167|
|         706|   -4.909729|   -8.143372|    0.823971|    0.012167|
|         707|   -4.979093|   -8.155276|    0.823970|    0.012167|
|         708|   -5.065008|   -8.166793|    0.823969|    0.012167|
|         709|   -5.155491|   -8.177927|    0.823968|    0.012167|
|         710|   -5.235140|   -8.188578|    0.823966|    0.012167|
|         711|   -5.295813|   -8.198482|    0.823965|    0.012167|
|         712|   -5.338159|   -8.207358|    0.823964|    0.012167|
|         713|   -5.364652|   -8.215054|    0.823963|    0.012167|
|         714|   -5.378063|   -8.221526|    0.823962|    0.012167|
|         715|   -5.383957|   -8.226724|    0.823961|    0.012167|
|         716|   -5.389395|   -8.230538|    0.823960|    0.012167|
|         717|   -5.399446|   -8.232861|    0.823959|    0.012167|
|         718|   -5.415613|   -8.233675|    0.823958|    0.012167|
|         719|   -5.436368|   -8.233096|    0.823957|    0.012167|
|         720|   -5.458709|   -8.231342|    0.823957|    0.012167|
|         721|   -5.480047|   -8.228660|    0.823956|    0.012167|
|         722|   -5.499533|   -8.225280|    0.823955|    0.012167|
|         723|   -5.517989|   -8.221399|    0.823955|    0.012167|
|         724|   -5.536737|   -8.217188|    0.823954|    0.012167|
|         725|   -5.556473|   -8.212812|    0.823954|    0.012167|
|         726|   -5.576883|   -8.208430|    0.823953|    0.012167|
|         727|   -5.596903|   -8.204199|    0.823953|    0.012167|
|         728|   -5.615235|   -8.200265|    0.823953|    0.012167|
|         729|   -5.630790|   -8.196751|    0.823953|    0.012167|
|         730|   -5.642948|   -8.193763|    0.823953|    0.012167|
|         731|   -5.651673|   -8.191373|    0.823953|    0.012167|
|         732|   -5.657529|   -8.189632|    0.823953|    0.012167|
|         733|   -5.661558|   -8.188556|    0.823953|    0.012167|
|         734|   -5.665034|   -8.188135|    0.823953|    0.012167|
|         735|   -5.669156|   -8.188333|    0.823953|    0.012167|
|         736|   -5.674809|   -8.189089|    0.823953|    0.012167|
|         737|   -5.682447|   -8.190330|    0.823954|    0.012167|
|         738|   -5.692064|   -8.191977|    0.823954|    0.012167|
|         739|   -5.703231|   -8.193939|    0.823954|    0.012167|
|         740|   -5.715161|   -8.196129|    0.823955|    0.012167|
|         741|   -5.726834|   -8.198465|    0.823955|    0.012167|
|         742|   -5.737206|   -8.200873|    0.823956|    0.012166|
|         743|   -5.745471|   -8.203292|    0.823956|    0.012166|
|         744|   -5.751312|   -8.205671|    0.823957|    0.012166|
|         745|   -5.754991|   -8.207973|    0.823957|    0.012166|
|         746|   -5.757250|   -8.210179|    0.823958|    0.012166|
|         747|   -5.759047|   -8.212281|    0.823958|    0.012166|
|         748|   -5.761290|   -8.214280|    0.823959|    0.012166|
|         749|   -5.764645|   -8.216176|    0.823960|    0.012166|
|         750|   -5.769455|   -8.217981|    0.823960|    0.012166|
|         751|   -5.775745|   -8.219700|    0.823961|    0.012166|
|         752|   -5.783290|   -8.221342|    0.823961|    0.012166|
|         753|   -5.791707|   -8.222911|    0.823962|    0.012166|
|         754|   -5.800559|   -8.224408|    0.823963|    0.012166|
|         755|   -5.809455|   -8.225819|    0.823964|    0.012166|
|         756|   -5.818124|   -8.227130|    0.823964|    0.012166|
|         757|   -5.826454|   -8.228330|    0.823965|    0.012166|
|         758|   -5.834485|   -8.229400|    0.823966|    0.012166|
|         759|   -5.842371|   -8.230316|    0.823967|    0.012166|
|         760|   -5.850322|   -8.231055|    0.823968|    0.012165|
|         761|   -5.858549|   -8.231598|    0.823968|    0.012165|
|         762|   -5.867223|   -8.231932|    0.823969|    0.012165|
|         763|   -5.876456|   -8.232053|    0.823970|    0.012165|
|         764|   -5.886302|   -8.231971|    0.823971|    0.012165|
|         765|   -5.896766|   -8.231707|    0.823972|    0.012165|
|         766|   -5.907823|   -8.231295|    0.823973|    0.012165|
|         767|   -5.919433|   -8.230781|    0.823974|    0.012165|
|         768|   -5.931561|   -8.230222|    0.823974|    0.012165|
|         769|   -5.944177|   -8.229679|    0.823975|    0.012165|
|         770|   -5.957262|   -8.229219|    0.823976|    0.012165|
|         771|   -5.970802|   -8.228905|    0.823977|    0.012165|
|         772|   -5.984780|   -8.228797|    0.823978|    0.012165|
|         773|   -5.999172|   -8.228945|    0.823979|    0.012165|
|         774|   -6.013934|   -8.229387|    0.823980|    0.012165|
|         775|   -6.029004|   -8.230145|    0.823981|    0.012165|
|         776|   -6.044296|   -8.231224|    0.823981|    0.012165|
|         777|   -6.059702|   -8.232607|    0.823982|    0.012165|
|         778|   -6.075091|   -8.234256|    0.823983|    0.012165|
|         779|   -6.090315|   -8.236114|    0.823983|    0.012165|
|         780|   -6.105213|   -8.238102|    0.823984|    0.012164|
|         781|   -6.119616|   -8.240125|    0.823985|    0.012164|
|         782|   -6.133352|   -8.242073|    0.823985|    0.012164|
|         783|   -6.146256|   -8.243827|    0.823985|    0.012164|
|         784|   -6.158175|   -8.245270|    0.823986|    0.012164|
|         785|   -6.168982|   -8.246287|    0.823986|    0.012164|
|         786|   -6.178577|   -8.246781|    0.823986|    0.012164|
|         787|   -6.186900|   -8.246680|    0.823987|    0.012164|
|         788|   -6.193929|   -8.245938|    0.823987|    0.012164|
|         789|   -6.199688|   -8.244550|    0.823987|    0.012164|
|         790|   -6.204237|   -8.242544|    0.823987|    0.012164|
|         791|   -6.207670|   -8.239985|    0.823987|    0.012164|
|         792|   -6.210106|   -8.236970|    0.823987|    0.012164|
|         793|   -6.211680|   -8.233617|    0.823987|    0.012164|
|         794|   -6.212536|   -8.230066|    0.823987|    0.012164|
|         795|   -6.212817|   -8.226461|    0.823986|    0.012164|
|         796|   -6.212660|   -8.222948|    0.823986|    0.012164|
|         797|   -6.212191|   -8.219665|    0.823986|    0.012164|
|         798|   -6.211525|   -8.216739|    0.823985|    0.012164|
|         799|   -6.210762|   -8.214279|    0.823985|    0.012164|
|         800|   -6.209988|   -8.212376|    0.823985|    0.012164|
|         801|   -6.209277|   -8.211098|    0.823984|    0.012165|
+-----------------------------------------------------------------------+
|Fixed CL Mode                           |Value                         |
+-----------------------------------------------------------------------+
|Current CL                              |0.823984                      |
|Target CL                               |0.824                         |
|Previous AOA                            |2.78325                       |
|Changed AoA by                          |7.73989e-05                   |
+-----------------------------------------------------------------------+
+----------------------------------------------------------------+
|  Inner_Iter|    rms[Rho]|     rms[nu]|          CL|          CD|
+----------------------------------------------------------------+
|         802|   -4.304570|   -8.134307|    0.823984|    0.012165|
|         803|   -4.687546|   -8.168971|    0.823983|    0.012165|
|         804|   -4.926787|   -8.180899|    0.823983|    0.012165|
|         805|   -5.002865|   -8.188573|    0.823982|    0.012165|
|         806|   -5.055665|   -8.195102|    0.823981|    0.012165|
|         807|   -5.124744|   -8.201194|    0.823981|    0.012165|
|         808|   -5.210439|   -8.207039|    0.823980|    0.012165|
|         809|   -5.300786|   -8.212715|    0.823980|    0.012166|
|         810|   -5.380451|   -8.218214|    0.823979|    0.012166|
|         811|   -5.441287|   -8.223436|    0.823979|    0.012166|
|         812|   -5.483852|   -8.228267|    0.823978|    0.012166|
|         813|   -5.510529|   -8.232655|    0.823977|    0.012166|
|         814|   -5.524040|   -8.236595|    0.823977|    0.012166|
|         815|   -5.529944|   -8.240061|    0.823976|    0.012166|
|         816|   -5.535319|   -8.242981|    0.823976|    0.012166|
|         817|   -5.545253|   -8.245273|    0.823975|    0.012166|
|         818|   -5.561261|   -8.246887|    0.823975|    0.012166|
|         819|   -5.581820|   -8.247837|    0.823975|    0.012166|
|         820|   -5.603940|   -8.248190|    0.823974|    0.012166|
|         821|   -5.625047|   -8.248028|    0.823974|    0.012166|
|         822|   -5.644301|   -8.247435|    0.823974|    0.012166|
|         823|   -5.662522|   -8.246487|    0.823973|    0.012166|
|         824|   -5.681024|   -8.245252|    0.823973|    0.012166|
|         825|   -5.700501|   -8.243810|    0.823973|    0.012166|
|         826|   -5.720645|   -8.242247|    0.823973|    0.012166|
|         827|   -5.740419|   -8.240659|    0.823972|    0.012166|
|         828|   -5.758561|   -8.239142|    0.823972|    0.012166|
|         829|   -5.774022|   -8.237788|    0.823972|    0.012166|
|         830|   -5.786214|   -8.236680|    0.823972|    0.012166|
|         831|   -5.795117|   -8.235883|    0.823972|    0.012166|
|         832|   -5.801289|   -8.235447|    0.823972|    0.012166|
|         833|   -5.805755|   -8.235403|    0.823972|    0.012166|
|         834|   -5.809769|   -8.235759|    0.823972|    0.012166|
|         835|   -5.814515|   -8.236508|    0.823973|    0.012166|
|         836|   -5.820880|   -8.237623|    0.823973|    0.012166|
|         837|   -5.829328|   -8.239066|    0.823973|    0.012166|
|         838|   -5.839870|   -8.240792|    0.823973|    0.012166|
|         839|   -5.852091|   -8.242744|    0.823973|    0.012166|
|         840|   -5.865205|   -8.244869|    0.823973|    0.012166|
|         841|   -5.878173|   -8.247110|    0.823974|    0.012166|
|         842|   -5.889901|   -8.249418|    0.823974|    0.012166|
|         843|   -5.899515|   -8.251750|    0.823974|    0.012166|
|         844|   -5.906624|   -8.254069|    0.823974|    0.012166|
|         845|   -5.911448|   -8.256347|    0.823975|    0.012166|
|         846|   -5.914718|   -8.258563|    0.823975|    0.012166|
|         847|   -5.917420|   -8.260701|    0.823975|    0.012166|
|         848|   -5.920512|   -8.262753|    0.823976|    0.012166|
|         849|   -5.924705|   -8.264712|    0.823976|    0.012166|
|         850|   -5.930380|   -8.266575|    0.823976|    0.012166|
|         851|   -5.937581|   -8.268338|    0.823977|    0.012166|
|         852|   -5.946081|   -8.270001|    0.823977|    0.012166|
|         853|   -5.955476|   -8.271563|    0.823977|    0.012166|
|         854|   -5.965295|   -8.273021|    0.823978|    0.012166|
|         855|   -5.975108|   -8.274373|    0.823978|    0.012166|
|         856|   -5.984607|   -8.275612|    0.823979|    0.012166|
|         857|   -5.993656|   -8.276735|    0.823979|    0.012166|
|         858|   -6.002285|   -8.277743|    0.823980|    0.012166|
|         859|   -6.010653|   -8.278639|    0.823980|    0.012166|
|         860|   -6.018984|   -8.279427|    0.823981|    0.012166|
|         861|   -6.027506|   -8.280116|    0.823981|    0.012166|
|         862|   -6.036408|   -8.280718|    0.823982|    0.012166|
|         863|   -6.045812|   -8.281256|    0.823982|    0.012166|
|         864|   -6.055778|   -8.281755|    0.823983|    0.012166|
|         865|   -6.066311|   -8.282251|    0.823983|    0.012166|
|         866|   -6.077385|   -8.282782|    0.823984|    0.012166|
|         867|   -6.088961|   -8.283393|    0.823984|    0.012166|
|         868|   -6.101001|   -8.284131|    0.823985|    0.012166|
|         869|   -6.113480|   -8.285043|    0.823985|    0.012166|
|         870|   -6.126385|   -8.286174|    0.823986|    0.012166|
|         871|   -6.139713|   -8.287565|    0.823986|    0.012166|
|         872|   -6.153462|   -8.289248|    0.823987|    0.012166|
|         873|   -6.167624|   -8.291247|    0.823988|    0.012166|
|         874|   -6.182178|   -8.293575|    0.823988|    0.012166|
|         875|   -6.197086|   -8.296229|    0.823989|    0.012166|
|         876|   -6.212289|   -8.299190|    0.823989|    0.012166|
|         877|   -6.227709|   -8.302426|    0.823990|    0.012166|
|         878|   -6.243253|   -8.305887|    0.823990|    0.012166|
|         879|   -6.258808|   -8.309508|    0.823990|    0.012166|
|         880|   -6.274254|   -8.313209|    0.823991|    0.012166|
|         881|   -6.289460|   -8.316898|    0.823991|    0.012166|
|         882|   -6.304293|   -8.320473|    0.823991|    0.012166|
|         883|   -6.318618|   -8.323831|    0.823992|    0.012166|
|         884|   -6.332306|   -8.326871|    0.823992|    0.012166|
|         885|   -6.345236|   -8.329497|    0.823992|    0.012165|
|         886|   -6.357308|   -8.331634|    0.823992|    0.012165|
|         887|   -6.368440|   -8.333223|    0.823992|    0.012165|
|         888|   -6.378577|   -8.334235|    0.823993|    0.012165|
|         889|   -6.387693|   -8.334669|    0.823993|    0.012165|
|         890|   -6.395795|   -8.334553|    0.823993|    0.012165|
|         891|   -6.402914|   -8.333944|    0.823993|    0.012165|
|         892|   -6.409109|   -8.332925|    0.823992|    0.012165|
|         893|   -6.414457|   -8.331597|    0.823992|    0.012165|
|         894|   -6.419050|   -8.330073|    0.823992|    0.012165|
|         895|   -6.422986|   -8.328476|    0.823992|    0.012165|
|         896|   -6.426367|   -8.326927|    0.823992|    0.012165|
|         897|   -6.429289|   -8.325541|    0.823992|    0.012165|
|         898|   -6.431848|   -8.324425|    0.823991|    0.012165|
|         899|   -6.434128|   -8.323672|    0.823991|    0.012165|
|         900|   -6.436207|   -8.323358|    0.823991|    0.012165|
|         901|   -6.438153|   -8.323543|    0.823990|    0.012165|
+-----------------------------------------------------------------------+
|Fixed CL Mode                           |Value                         |
+-----------------------------------------------------------------------+
|Current CL                              |0.82399                       |
|Target CL                               |0.824                         |
|Previous AOA                            |2.78332                       |
[...]
|        5298|   -6.044086|   -7.945950|    0.824235|    0.012169|
|        5299|   -6.050628|   -7.950443|    0.824235|    0.012169|
|        5300|   -6.056831|   -7.954959|    0.824236|    0.012168|
|        5301|   -6.062657|   -7.959513|    0.824236|    0.012168|
|        5302|   -6.068080|   -7.964119|    0.824236|    0.012168|
|        5303|   -6.073082|   -7.968788|    0.824236|    0.012168|
|        5304|   -6.077654|   -7.973526|    0.824236|    0.012168|
|        5305|   -6.081800|   -7.978339|    0.824236|    0.012168|
|        5306|   -6.085533|   -7.983232|    0.824236|    0.012168|
|        5307|   -6.088875|   -7.988207|    0.824236|    0.012168|
|        5308|   -6.091856|   -7.993267|    0.824236|    0.012168|
|        5309|   -6.094514|   -7.998413|    0.824236|    0.012168|
|        5310|   -6.096892|   -8.003647|    0.824236|    0.012168|
|        5311|   -6.099037|   -8.008973|    0.824236|    0.012168|
|        5312|   -6.100998|   -8.014394|    0.824236|    0.012168|
|        5313|   -6.102826|   -8.019914|    0.824236|    0.012168|
|        5314|   -6.104571|   -8.025538|    0.824236|    0.012168|
|        5315|   -6.106281|   -8.031271|    0.824237|    0.012168|
|        5316|   -6.108001|   -8.037120|    0.824237|    0.012168|
|        5317|   -6.109773|   -8.043090|    0.824237|    0.012168|
|        5318|   -6.111630|   -8.049191|    0.824237|    0.012168|
|        5319|   -6.113605|   -8.055427|    0.824237|    0.012168|
|        5320|   -6.115727|   -8.061808|    0.824237|    0.012168|
|        5321|   -6.118017|   -8.068338|    0.824237|    0.012168|
|        5322|   -6.120487|   -8.075023|    0.824237|    0.012168|
|        5323|   -6.123146|   -8.081868|    0.824237|    0.012169|
|        5324|   -6.125996|   -8.088875|    0.824237|    0.012169|
|        5325|   -6.129032|   -8.096046|    0.824238|    0.012169|
|        5326|   -6.132244|   -8.103380|    0.824238|    0.012169|
|        5327|   -6.135614|   -8.110872|    0.824238|    0.012169|
|        5328|   -6.139121|   -8.118519|    0.824238|    0.012169|
|        5329|   -6.142736|   -8.126311|    0.824238|    0.012169|
|        5330|   -6.146428|   -8.134239|    0.824238|    0.012169|
|        5331|   -6.150162|   -8.142293|    0.824238|    0.012169|
|        5332|   -6.153899|   -8.150458|    0.824238|    0.012169|
|        5333|   -6.157601|   -8.158721|    0.824238|    0.012169|
|        5334|   -6.161227|   -8.167066|    0.824238|    0.012169|
|        5335|   -6.164739|   -8.175477|    0.824239|    0.012170|
|        5336|   -6.168100|   -8.183938|    0.824239|    0.012170|
|        5337|   -6.171277|   -8.192433|    0.824239|    0.012170|
|        5338|   -6.174242|   -8.200945|    0.824239|    0.012170|
|        5339|   -6.176974|   -8.209458|    0.824239|    0.012170|
|        5340|   -6.179458|   -8.217959|    0.824239|    0.012170|
|        5341|   -6.181686|   -8.226435|    0.824239|    0.012170|
|        5342|   -6.183661|   -8.234873|    0.824239|    0.012170|
|        5343|   -6.185390|   -8.243266|    0.824239|    0.012170|
|        5344|   -6.186892|   -8.251608|    0.824239|    0.012170|
|        5345|   -6.188190|   -8.259897|    0.824239|    0.012170|
|        5346|   -6.189314|   -8.268129|    0.824239|    0.012170|
|        5347|   -6.190300|   -8.276303|    0.824239|    0.012170|
|        5348|   -6.191188|   -8.284419|    0.824239|    0.012170|
|        5349|   -6.192019|   -8.292478|    0.824239|    0.012171|
|        5350|   -6.192837|   -8.300483|    0.824239|    0.012171|
|        5351|   -6.193685|   -8.308438|    0.824239|    0.012171|
|        5352|   -6.194608|   -8.316346|    0.824239|    0.012171|
|        5353|   -6.195645|   -8.324213|    0.824239|    0.012171|
|        5354|   -6.196837|   -8.332044|    0.824239|    0.012171|
|        5355|   -6.198218|   -8.339845|    0.824239|    0.012171|
|        5356|   -6.199820|   -8.347618|    0.824239|    0.012171|
|        5357|   -6.201673|   -8.355371|    0.824239|    0.012171|
|        5358|   -6.203798|   -8.363105|    0.824239|    0.012171|
|        5359|   -6.206216|   -8.370824|    0.824239|    0.012171|
|        5360|   -6.208940|   -8.378531|    0.824239|    0.012171|
|        5361|   -6.211980|   -8.386226|    0.824239|    0.012171|
|        5362|   -6.215341|   -8.393909|    0.824239|    0.012171|
|        5363|   -6.219023|   -8.401579|    0.824239|    0.012171|
|        5364|   -6.223020|   -8.409233|    0.824239|    0.012171|
|        5365|   -6.227323|   -8.416869|    0.824239|    0.012171|
|        5366|   -6.231916|   -8.424480|    0.824239|    0.012171|
|        5367|   -6.236780|   -8.432063|    0.824239|    0.012171|
|        5368|   -6.241890|   -8.439609|    0.824239|    0.012171|
|        5369|   -6.247219|   -8.447112|    0.824238|    0.012171|
|        5370|   -6.252733|   -8.454564|    0.824238|    0.012171|
|        5371|   -6.258394|   -8.461957|    0.824238|    0.012170|
|        5372|   -6.264163|   -8.469283|    0.824238|    0.012170|
|        5373|   -6.269996|   -8.476534|    0.824238|    0.012170|
|        5374|   -6.275846|   -8.483702|    0.824238|    0.012170|
|        5375|   -6.281668|   -8.490782|    0.824238|    0.012170|
|        5376|   -6.287413|   -8.497773|    0.824238|    0.012170|
|        5377|   -6.293033|   -8.504670|    0.824238|    0.012170|
|        5378|   -6.298482|   -8.511465|    0.824238|    0.012170|
|        5379|   -6.303717|   -8.518155|    0.824237|    0.012170|
|        5380|   -6.308698|   -8.524736|    0.824237|    0.012170|
|        5381|   -6.313389|   -8.531207|    0.824237|    0.012170|
|        5382|   -6.317762|   -8.537567|    0.824237|    0.012170|
|        5383|   -6.321794|   -8.543815|    0.824237|    0.012170|
|        5384|   -6.325467|   -8.549951|    0.824237|    0.012170|
|        5385|   -6.328772|   -8.555975|    0.824237|    0.012169|
|        5386|   -6.331707|   -8.561885|    0.824237|    0.012169|
|        5387|   -6.334276|   -8.567678|    0.824237|    0.012169|
|        5388|   -6.336489|   -8.573347|    0.824237|    0.012169|
|        5389|   -6.338360|   -8.578882|    0.824237|    0.012169|
|        5390|   -6.339909|   -8.584271|    0.824237|    0.012169|
|        5391|   -6.341159|   -8.589495|    0.824237|    0.012169|
|        5392|   -6.342133|   -8.594537|    0.824237|    0.012169|
|        5393|   -6.342857|   -8.599372|    0.824237|    0.012169|
|        5394|   -6.343356|   -8.603971|    0.824237|    0.012169|
|        5395|   -6.343657|   -8.608305|    0.824237|    0.012168|
|        5396|   -6.343782|   -8.612340|    0.824237|    0.012168|
|        5397|   -6.343754|   -8.616043|    0.824237|    0.012168|
|        5398|   -6.343592|   -8.619379|    0.824237|    0.012168|
|        5399|   -6.343316|   -8.622316|    0.824237|    0.012168|
|        5400|   -6.342939|   -8.624826|    0.824238|    0.012168|
|        5401|   -6.342476|   -8.626885|    0.824238|    0.012168|
|        5402|   -6.341937|   -8.628474|    0.824238|    0.012168|
|        5403|   -6.341332|   -8.629583|    0.824238|    0.012168|
|        5404|   -6.340668|   -8.630210|    0.824238|    0.012168|
|        5405|   -6.339952|   -8.630363|    0.824238|    0.012167|
|        5406|   -6.339187|   -8.630057|    0.824238|    0.012167|
|        5407|   -6.338379|   -8.629317|    0.824238|    0.012167|
|        5408|   -6.337531|   -8.628175|    0.824238|    0.012167|
|        5409|   -6.336646|   -8.626671|    0.824239|    0.012167|
|        5410|   -6.335728|   -8.624849|    0.824239|    0.012167|
|        5411|   -6.334778|   -8.622757|    0.824239|    0.012167|
|        5412|   -6.333801|   -8.620444|    0.824239|    0.012167|
|        5413|   -6.332801|   -8.617963|    0.824239|    0.012167|
|        5414|   -6.331780|   -8.615361|    0.824239|    0.012167|
|        5415|   -6.330744|   -8.612688|    0.824239|    0.012167|
|        5416|   -6.329699|   -8.609986|    0.824239|    0.012167|
|        5417|   -6.328648|   -8.607296|    0.824239|    0.012167|
|        5418|   -6.327600|   -8.604655|    0.824239|    0.012166|
|        5419|   -6.326561|   -8.602091|    0.824240|    0.012166|
|        5420|   -6.325538|   -8.599631|    0.824240|    0.012166|
|        5421|   -6.324540|   -8.597294|    0.824240|    0.012166|
|        5422|   -6.323577|   -8.595095|    0.824240|    0.012166|
|        5423|   -6.322658|   -8.593045|    0.824240|    0.012166|
|        5424|   -6.321794|   -8.591151|    0.824240|    0.012166|
|        5425|   -6.320996|   -8.589415|    0.824240|    0.012166|
|        5426|   -6.320278|   -8.587837|    0.824240|    0.012166|
|        5427|   -6.319650|   -8.586416|    0.824240|    0.012166|
|        5428|   -6.319128|   -8.585147|    0.824240|    0.012166|
|        5429|   -6.318725|   -8.584024|    0.824240|    0.012166|
|        5430|   -6.318455|   -8.583042|    0.824240|    0.012166|
|        5431|   -6.318334|   -8.582193|    0.824240|    0.012166|
|        5432|   -6.318376|   -8.581471|    0.824240|    0.012166|
|        5433|   -6.318597|   -8.580868|    0.824240|    0.012166|
|        5434|   -6.319010|   -8.580380|    0.824240|    0.012166|
|        5435|   -6.319631|   -8.580000|    0.824240|    0.012166|
|        5436|   -6.320473|   -8.579724|    0.824240|    0.012166|
|        5437|   -6.321549|   -8.579550|    0.824240|    0.012166|
|        5438|   -6.322872|   -8.579475|    0.824240|    0.012166|
|        5439|   -6.324451|   -8.579499|    0.824240|    0.012166|
|        5440|   -6.326296|   -8.579621|    0.824240|    0.012166|
|        5441|   -6.328414|   -8.579842|    0.824240|    0.012166|
|        5442|   -6.330811|   -8.580164|    0.824240|    0.012166|
|        5443|   -6.333489|   -8.580588|    0.824240|    0.012167|
|        5444|   -6.336449|   -8.581117|    0.824240|    0.012167|
|        5445|   -6.339690|   -8.581753|    0.824240|    0.012167|
|        5446|   -6.343205|   -8.582499|    0.824240|    0.012167|
|        5447|   -6.346986|   -8.583356|    0.824240|    0.012167|
|        5448|   -6.351022|   -8.584326|    0.824240|    0.012167|
|        5449|   -6.355297|   -8.585409|    0.824240|    0.012167|
|        5450|   -6.359793|   -8.586607|    0.824240|    0.012167|
|        5451|   -6.364486|   -8.587919|    0.824240|    0.012167|
|        5452|   -6.369350|   -8.589344|    0.824239|    0.012167|
|        5453|   -6.374355|   -8.590882|    0.824239|    0.012167|
|        5454|   -6.379467|   -8.592530|    0.824239|    0.012167|
|        5455|   -6.384647|   -8.594285|    0.824239|    0.012167|
|        5456|   -6.389855|   -8.596146|    0.824239|    0.012167|
|        5457|   -6.395048|   -8.598108|    0.824239|    0.012168|
|        5458|   -6.400179|   -8.600168|    0.824239|    0.012168|
|        5459|   -6.405202|   -8.602321|    0.824239|    0.012168|
|        5460|   -6.410068|   -8.604564|    0.824238|    0.012168|
|        5461|   -6.414730|   -8.606892|    0.824238|    0.012168|
|        5462|   -6.419142|   -8.609300|    0.824238|    0.012168|
|        5463|   -6.423260|   -8.611783|    0.824238|    0.012168|
|        5464|   -6.427046|   -8.614336|    0.824238|    0.012168|
|        5465|   -6.430465|   -8.616955|    0.824238|    0.012168|
|        5466|   -6.433487|   -8.619634|    0.824237|    0.012168|
|        5467|   -6.436092|   -8.622368|    0.824237|    0.012168|
|        5468|   -6.438266|   -8.625150|    0.824237|    0.012168|
|        5469|   -6.440002|   -8.627975|    0.824237|    0.012168|
|        5470|   -6.441302|   -8.630836|    0.824237|    0.012168|
|        5471|   -6.442177|   -8.633726|    0.824237|    0.012168|
|        5472|   -6.442643|   -8.636638|    0.824236|    0.012169|
|        5473|   -6.442725|   -8.639563|    0.824236|    0.012169|
|        5474|   -6.442453|   -8.642494|    0.824236|    0.012169|
|        5475|   -6.441861|   -8.645420|    0.824236|    0.012169|
|        5476|   -6.440988|   -8.648332|    0.824236|    0.012169|
|        5477|   -6.439874|   -8.651219|    0.824235|    0.012169|
|        5478|   -6.438563|   -8.654070|    0.824235|    0.012169|
|        5479|   -6.437096|   -8.656874|    0.824235|    0.012169|
|        5480|   -6.435516|   -8.659619|    0.824235|    0.012169|
|        5481|   -6.433864|   -8.662293|    0.824235|    0.012169|
|        5482|   -6.432182|   -8.664884|    0.824234|    0.012169|
|        5483|   -6.430506|   -8.667379|    0.824234|    0.012169|
|        5484|   -6.428870|   -8.669768|    0.824234|    0.012169|
|        5485|   -6.427307|   -8.672039|    0.824234|    0.012169|
|        5486|   -6.425845|   -8.674182|    0.824234|    0.012169|
|        5487|   -6.424510|   -8.676186|    0.824233|    0.012169|
|        5488|   -6.423326|   -8.678045|    0.824233|    0.012169|
|        5489|   -6.422312|   -8.679750|    0.824233|    0.012169|
|        5490|   -6.421487|   -8.681297|    0.824233|    0.012169|
|        5491|   -6.420863|   -8.682683|    0.824233|    0.012169|
|        5492|   -6.420454|   -8.683905|    0.824232|    0.012169|
|        5493|   -6.420269|   -8.684963|    0.824232|    0.012169|
|        5494|   -6.420315|   -8.685857|    0.824232|    0.012169|
|        5495|   -6.420597|   -8.686591|    0.824232|    0.012169|
|        5496|   -6.421120|   -8.687167|    0.824232|    0.012169|
|        5497|   -6.421884|   -8.687591|    0.824232|    0.012169|
|        5498|   -6.422890|   -8.687868|    0.824232|    0.012169|
|        5499|   -6.424137|   -8.688004|    0.824232|    0.012154|
+-----------------------------------------------------------------------+
|Fixed CL Mode (Finite Difference)       |Value                         |
+-----------------------------------------------------------------------+
|Delta CL / Delta AoA                    |0.23166                       |
|Delta CD / Delta CL                     |0.0191734                     |
|Delta CMz / Delta CL                    |-0.000959743                  |
+-----------------------------------------------------------------------+
Writing Flow Meta-Data file: flow.meta

----------------------------- Solver Exit -------------------------------

Maximum number of iterations reached (ITER = 5500) before convergence.
+-----------------------------------------------------------------------+
|      Convergence Field     |     Value    |   Criterion  |  Converged |
+-----------------------------------------------------------------------+
|                    rms[Rho]|      -6.42414|         < -12|          No|
+-----------------------------------------------------------------------+
-------------------------------------------------------------------------

--------------------------- Finalizing Solver ---------------------------
Deleted CNumerics container.
Deleted CIntegration container.
Deleted CSolver container.
Deleted CIteration container.
Deleted CInterface container.
Deleted CGeometry container.
Deleted CFreeFormDefBox class.
Deleted CSurfaceMovement class.
Deleted CVolumetricMovement class.
Deleted CConfig container.
Deleted nInst container.
Deleted COutput class.
-------------------------------------------------------------------------

------------------------- Exit Success (SU2_CFD) ------------------------


-------------------------------------------------------------------------
|    ___ _   _ ___                                                      |
|   / __| | | |_  )   Release 8.0.0 "Harrier"                           |
|   \__ \ |_| |/ /                                                      |
|   |___/\___//___|   Suite (Solution Exporting Code)                   |
|                                                                       |
-------------------------------------------------------------------------
| SU2 Project Website: https://su2code.github.io                        |
|                                                                       |
| The SU2 Project is maintained by the SU2 Foundation                   |
| (http://su2foundation.org)                                            |
-------------------------------------------------------------------------
| Copyright 2012-2023, SU2 Contributors                                 |
|                                                                       |
| SU2 is free software; you can redistribute it and/or                  |
| modify it under the terms of the GNU Lesser General Public            |
| License as published by the Free Software Foundation; either          |
| version 2.1 of the License, or (at your option) any later version.    |
|                                                                       |
| SU2 is distributed in the hope that it will be useful,                |
| but WITHOUT ANY WARRANTY; without even the implied warranty of        |
| MERCHANTABILITY or FITNESS FOR A PARTICULAR PURPOSE. See the GNU      |
| Lesser General Public License for more details.                       |
|                                                                       |
| You should have received a copy of the GNU Lesser General Public      |
| License along with SU2. If not, see <http://www.gnu.org/licenses/>.   |
-------------------------------------------------------------------------

----------------- Physical Case Definition ( Zone 0 ) -------------------
Input mesh file name: mesh_RAE2822_turb_deform.su2

-------------------- Output Information ( Zone 0 ) ----------------------
The tabular file format is CSV (.csv).
Flow variables file name: flow.

------------- Config File Boundary Information ( Zone 0 ) ---------------
+-----------------------------------------------------------------------+
|                        Marker Type|                        Marker Name|
+-----------------------------------------------------------------------+
|                          Far-field|                           FARFIELD|
+-----------------------------------------------------------------------+
|                     Heat flux wall|                            AIRFOIL|
+-----------------------------------------------------------------------+
Two dimensional problem.
13937 grid points before partitioning.
22842 volume elements before partitioning.
2 surface markers.
192 boundary elements in index 0 (Marker = AIRFOIL).
40 boundary elements in index 1 (Marker = FARFIELD).
Executing the partitioning functions.
Building the graph adjacency structure.
Calling ParMETIS... graph partitioning complete (831 edge cuts).
Distributing ParMETIS coloring.
Rebalancing vertices.
Rebalancing volume element connectivity.
Rebalancing markers and surface elements.
14875 vertices including ghost points. 
23674 interior elements including halo cells. 
18780 triangles.
4894 quadrilaterals.
Establishing MPI communication patterns.
Identify vertices.
Storing a mapping from global to local point index.

------------------------- Solution Postprocessing -----------------------
Reading and storing the solution from restart_flow.
Volume output fields: COORDINATES, SOLUTION
  Info: Ignoring the following screen output fields:
  RMS_DENSITY, RMS_NU_TILDE, LIFT, DRAG
Screen output fields: INNER_ITER
  Info: Ignoring the following history output groups:
  RMS_RES, AERO_COEFF
History output group(s): ITER
Warning: No (valid) fields chosen for convergence monitoring. Convergence monitoring inactive.
Warning: No (valid) fields chosen for time convergence monitoring. Time convergence monitoring inactive.
|Paraview                           |flow.vtu                           |
|Paraview surface                   |surface_flow.vtu                   |
|CSV file                           |surface_flow.csv                   |

------------------------- Finalize Solver -------------------------
Deleted CGeometry container.
Deleted CSolver class.
Deleted CConfig container.
Deleted COutput class.

Completed in 0.016415 seconds on 6 cores.

------------------------- Exit Success (SU2_SOL) ------------------------

