
-------------------------------------------------------------------------
|    ___ _   _ ___                                                      |
|   / __| | | |_  )   Release 8.0.0 "Harrier"                           |
|   \__ \ |_| |/ /                                                      |
|   |___/\___//___|   Suite (Computational Fluid Dynamics Code)         |
|                                                                       |
-------------------------------------------------------------------------
| SU2 Project Website: https://su2code.github.io                        |
|                                                                       |
| The SU2 Project is maintained by the SU2 Foundation                   |
| (http://su2foundation.org)                                            |
-------------------------------------------------------------------------
| Copyright 2012-2023, SU2 Contributors                                 |
|                                                                       |
| SU2 is free software; you can redistribute it and/or                  |
| modify it under the terms of the GNU Lesser General Public            |
| License as published by the Free Software Foundation; either          |
| version 2.1 of the License, or (at your option) any later version.    |
|                                                                       |
| SU2 is distributed in the hope that it will be useful,                |
| but WITHOUT ANY WARRANTY; without even the implied warranty of        |
| MERCHANTABILITY or FITNESS FOR A PARTICULAR PURPOSE. See the GNU      |
| Lesser General Public License for more details.                       |
|                                                                       |
| You should have received a copy of the GNU Lesser General Public      |
| License along with SU2. If not, see <http://www.gnu.org/licenses/>.   |
-------------------------------------------------------------------------

Parsing config file for zone 0

----------------- Physical Case Definition ( Zone 0 ) -------------------
Compressible RANS equations.
Turbulence model: Spalart-Allmaras-noft2
Hybrid RANS/LES: No Hybrid RANS/LES
Mach number: 0.734.
Angle of attack (AoA): 2.31 deg, and angle of sideslip (AoS): 0 deg.
Reynolds number: 6.5e+06. Reference length 1.
Fixed CL mode, target value: 0.824.
Reading and writing binary SU2 native restart files.
Read flow solution from: solution_flow.dat.
Dimensional simulation.
The reference area is 1 m^2.
The semi-span will be computed using the max y(3D) value.
The reference length is 1 m.
Reference origin for moment evaluation is (0.25, 0, 0).
Surface(s) where the force coefficients are evaluated: AIRFOIL.

Surface(s) plotted in the output file: AIRFOIL.
Surface(s) affected by the design variables: AIRFOIL.
Input mesh file name: mesh_RAE2822_turb_deform.su2

--------------- Space Numerical Integration ( Zone 0 ) ------------------
Jameson-Schmidt-Turkel scheme (2nd order in space) for the flow inviscid terms.
JST viscous coefficients (2nd & 4th): 0.5, 0.02.
The method includes a grid stretching correction (p = 0.3).
Scalar upwind solver for the turbulence model.
First order integration in space.
Average of gradients with correction (viscous flow terms).
Average of gradients with correction (viscous turbulence terms).
Gradient for viscous and source terms: inverse-distance weighted Least-Squares.

--------------- Time Numerical Integration  ( Zone 0 ) ------------------
Local time stepping (steady state simulation).
Euler implicit method for the flow equations.
FGMRES is used for solving the linear system.
Using a ILU(0) preconditioning.
Convergence criteria of the linear solver: 1e-06.
Max number of linear iterations: 10.
No CFL adaptation.
Courant-Friedrichs-Lewy number:       10
Euler implicit time integration for the turbulence model.

------------------ Convergence Criteria  ( Zone 0 ) ---------------------
Maximum number of solver subiterations: 5500.
Begin convergence monitoring at iteration 10.
Residual minimum value: 1e-12.
Cauchy series min. value: 1e-06.
Number of Cauchy elements: 100.
Begin windowed time average at iteration 0.

-------------------- Output Information ( Zone 0 ) ----------------------
File writing frequency: 
+------------------------------------+
|                     File| Frequency|
+------------------------------------+
|                  RESTART|     10000|
|                 PARAVIEW|     10000|
|         SURFACE_PARAVIEW|     10000|
|              SURFACE_CSV|     10000|
+------------------------------------+
Writing the convergence history file every 1 inner iterations.
Writing the screen convergence history every 1 inner iterations.
The tabular file format is CSV (.csv).
Convergence history file name: history_direct.
Forces breakdown file name: forces_breakdown.dat.
Surface file name: surface_flow.
Volume file name: flow.
Restart file name: restart_flow.dat.

------------- Config File Boundary Information ( Zone 0 ) ---------------
+-----------------------------------------------------------------------+
|                        Marker Type|                        Marker Name|
+-----------------------------------------------------------------------+
|                          Far-field|                           FARFIELD|
+-----------------------------------------------------------------------+
|                     Heat flux wall|                            AIRFOIL|
+-----------------------------------------------------------------------+

-------------------- Output Preprocessing ( Zone 0 ) --------------------

WARNING: SURFACE_PRESSURE_DROP can only be computed for at least 2 surfaces (outlet, inlet, ...)

Screen output fields: INNER_ITER, RMS_DENSITY, RMS_NU_TILDE, LIFT, DRAG
History output group(s): ITER, RMS_RES, AERO_COEFF
Convergence field(s): RMS_DENSITY
Warning: No (valid) fields chosen for time convergence monitoring. Time convergence monitoring inactive.
Volume output fields: COORDINATES, SOLUTION, PRIMITIVE

------------------- Geometry Preprocessing ( Zone 0 ) -------------------
Two dimensional problem.
13937 grid points before partitioning.
22842 volume elements before partitioning.
2 surface markers.
192 boundary elements in index 0 (Marker = AIRFOIL).
40 boundary elements in index 1 (Marker = FARFIELD).
Executing the partitioning functions.
Building the graph adjacency structure.
Calling ParMETIS... graph partitioning complete (831 edge cuts).
Distributing ParMETIS coloring.
Rebalancing vertices.
Rebalancing volume element connectivity.
Rebalancing markers and surface elements.
14875 vertices including ghost points. 
23674 interior elements including halo cells. 
18780 triangles.
4894 quadrilaterals.
Establishing MPI communication patterns.
Setting point connectivity.
Renumbering points (Reverse Cuthill McKee Ordering).
Recomputing point connectivity.
Setting element connectivity.
Checking the numerical grid orientation.
All volume elements are correctly orientend.
All surface elements are correctly orientend.
Identifying edges and vertices.
Setting the control volume structure.
Area of the computational grid: 32209.9.
Searching for the closest normal neighbors to the surfaces.
Storing a mapping from global to local point index.
Compute the surface curvature.
Max K: 161.496. Mean K: 7.40767. Standard deviation K: 22.0463.
Checking for periodicity.
Computing mesh quality statistics for the dual control volumes.
+--------------------------------------------------------------+
|           Mesh Quality Metric|        Minimum|        Maximum|
+--------------------------------------------------------------+
|    Orthogonality Angle (deg.)|        75.2883|        89.9994|
|     CV Face Area Aspect Ratio|        1.00107|        3358.42|
|           CV Sub-Volume Ratio|        1.00068|        1212.54|
+--------------------------------------------------------------+
Finding max control volume width.
Communicating number of neighbors.
Wetted area = 2.02285 m.
Area projection in the x-plane = 0.124355 m, y-plane = 0.995873 m.
Max. coordinate in the x-direction = 1 m, y-direction = 0.0631562 m.
Min. coordinate in the x-direction = 0 m, y-direction = -0.0595644 m.
Computing wall distances.

-------------------- Solver Preprocessing ( Zone 0 ) --------------------
WARNING: AoA in the solution file (2.78394 deg.) +
         AoA offset in mesh file (0 deg.) = 2.78394 deg.
WARNING: SU2 will use the dCD/dCL provided in the direct solution file: 0.0194885.
WARNING: SU2 will use the dCMz/dCL provided in the direct solution file: 0.00353834.
Viscous flow: Computing pressure using the ideal gas law
based on the free-stream temperature and a density computed
from the Reynolds number.
Force coefficients computed using free-stream values.

-- Models:
+------------------------------------------------------------------------------+
|          Viscosity Model|        Conductivity Model|              Fluid Model|
+------------------------------------------------------------------------------+
|               SUTHERLAND|          CONSTANT_PRANDTL|             STANDARD_AIR|
+------------------------------------------------------------------------------+
-- Fluid properties:
+------------------------------------------------------------------------------+
|                  Name|    Dim. value|    Ref. value|      Unit|Non-dim. value|
+------------------------------------------------------------------------------+
|        Ref. Viscosity|     1.716e-05|             1|   N.s/m^2|     1.716e-05|
|      Sutherland Temp.|        273.15|             1|         K|        273.15|
|     Sutherland Const.|         110.4|             1|         K|         110.4|
+------------------------------------------------------------------------------+
|        Prandtl (Lam.)|             -|             -|         -|          0.71|
|       Prandtl (Turb.)|             -|             -|         -|           0.9|
+------------------------------------------------------------------------------+
|          Gas Constant|       287.058|             1|  N.m/kg.K|       287.058|
|      Spec. Heat Ratio|             -|             -|         -|           1.4|
+------------------------------------------------------------------------------+
-- Initial and free-stream conditions:
+------------------------------------------------------------------------------+
|                  Name|    Dim. value|    Ref. value|      Unit|Non-dim. value|
+------------------------------------------------------------------------------+
|       Static Pressure|         38515|             1|        Pa|         38515|
|               Density|      0.465631|             1|    kg/m^3|      0.465631|
|           Temperature|        288.15|             1|         K|        288.15|
|          Total Energy|        237984|             1|   m^2/s^2|        237984|
|            Velocity-X|       249.483|             1|       m/s|       249.483|
|            Velocity-Y|       12.1317|             1|       m/s|       12.1317|
|    Velocity Magnitude|       249.778|             1|       m/s|       249.778|
+------------------------------------------------------------------------------+
|             Viscosity|    1.7893e-05|             1|   N.s/m^2|    1.7893e-05|
|          Conductivity|             -|             1|   W/m^2.K|             -|
|     Turb. Kin. Energy|       233.959|             1|   m^2/s^2|       233.959|
|     Spec. Dissipation|        608834|             1|       1/s|        608834|
+------------------------------------------------------------------------------+
|           Mach Number|             -|             -|         -|         0.734|
|       Reynolds Number|             -|             -|         -|       6.5e+06|
+------------------------------------------------------------------------------+
Initialize Jacobian structure (Navier-Stokes). MG level: 0.
Initialize Jacobian structure (SA model).

------------------- Numerics Preprocessing ( Zone 0 ) -------------------

----------------- Integration Preprocessing ( Zone 0 ) ------------------

------------------- Iteration Preprocessing ( Zone 0 ) ------------------
Euler/Navier-Stokes/RANS fluid iteration.

------------------------------ Begin Solver -----------------------------

Simulation Run using the Single-zone Driver
WARNING: SU2 was not compiled for an AVX-capable architecture. Performance could be better,
         see https://su2code.github.io/docs_v7/Build-SU2-Linux-MacOS/#compiler-optimizations
+----------------------------------------------------------------+
|  Inner_Iter|    rms[Rho]|     rms[nu]|          CL|          CD|
+----------------------------------------------------------------+
|           0|   -4.399906|   -5.617281|    0.824196|    0.011967|
|           1|   -4.456780|   -5.717570|    0.824291|    0.011951|
|           2|   -4.519909|   -5.831118|    0.824307|    0.011942|
|           3|   -4.574190|   -5.954151|    0.824276|    0.011937|
|           4|   -4.618015|   -6.082780|    0.824227|    0.011934|
|           5|   -4.649503|   -6.203351|    0.824181|    0.011932|
|           6|   -4.667531|   -6.282385|    0.824151|    0.011932|
|           7|   -4.674291|   -6.294182|    0.824142|    0.011935|
|           8|   -4.673387|   -6.265140|    0.824149|    0.011940|
|           9|   -4.667171|   -6.233463|    0.824170|    0.011949|
|          10|   -4.656710|   -6.215666|    0.824198|    0.011961|
|          11|   -4.643142|   -6.213798|    0.824231|    0.011975|
|          12|   -4.628258|   -6.223542|    0.824264|    0.011992|
|          13|   -4.614030|   -6.237147|    0.824295|    0.012010|
|          14|   -4.601951|   -6.244127|    0.824319|    0.012030|
|          15|   -4.592755|   -6.234917|    0.824336|    0.012050|
|          16|   -4.586460|   -6.207427|    0.824342|    0.012070|
|          17|   -4.582569|   -6.168520|    0.824337|    0.012089|
|          18|   -4.580298|   -6.128258|    0.824321|    0.012106|
|          19|   -4.578819|   -6.094295|    0.824296|    0.012123|
|          20|   -4.577486|   -6.070716|    0.824262|    0.012137|
|          21|   -4.575982|   -6.058979|    0.824224|    0.012150|
|          22|   -4.574352|   -6.058874|    0.824182|    0.012160|
|          23|   -4.572892|   -6.069008|    0.824140|    0.012169|
|          24|   -4.571982|   -6.086934|    0.824100|    0.012177|
|          25|   -4.571919|   -6.109103|    0.824064|    0.012184|
|          26|   -4.572823|   -6.131110|    0.824034|    0.012189|
|          27|   -4.574621|   -6.148650|    0.824010|    0.012194|
|          28|   -4.577081|   -6.159007|    0.823991|    0.012199|
|          29|   -4.579891|   -6.162173|    0.823979|    0.012203|
|          30|   -4.582732|   -6.160568|    0.823971|    0.012207|
|          31|   -4.585343|   -6.157553|    0.823967|    0.012211|
|          32|   -4.587560|   -6.156077|    0.823966|    0.012215|
|          33|   -4.589324|   -6.158057|    0.823965|    0.012219|
|          34|   -4.590658|   -6.164406|    0.823965|    0.012223|
|          35|   -4.591644|   -6.175223|    0.823963|    0.012227|
|          36|   -4.592381|   -6.190012|    0.823958|    0.012231|
|          37|   -4.592966|   -6.207847|    0.823951|    0.012236|
|          38|   -4.593474|   -6.227503|    0.823940|    0.012240|
|          39|   -4.593955|   -6.247607|    0.823924|    0.012245|
|          40|   -4.594439|   -6.266784|    0.823905|    0.012249|
|          41|   -4.594944|   -6.283847|    0.823881|    0.012254|
|          42|   -4.595477|   -6.297962|    0.823854|    0.012258|
|          43|   -4.596041|   -6.308729|    0.823823|    0.012262|
|          44|   -4.596631|   -6.316161|    0.823788|    0.012266|
|          45|   -4.597237|   -6.320584|    0.823751|    0.012270|
|          46|   -4.597834|   -6.322510|    0.823712|    0.012273|
|          47|   -4.598385|   -6.322508|    0.823671|    0.012275|
|          48|   -4.598843|   -6.321137|    0.823629|    0.012277|
|          49|   -4.599155|   -6.318905|    0.823586|    0.012278|
|          50|   -4.599268|   -6.316258|    0.823544|    0.012279|
|          51|   -4.599138|   -6.313571|    0.823502|    0.012278|
|          52|   -4.598741|   -6.311151|    0.823461|    0.012277|
|          53|   -4.598071|   -6.309232|    0.823422|    0.012275|
|          54|   -4.597149|   -6.307978|    0.823384|    0.012272|
|          55|   -4.596014|   -6.307489|    0.823348|    0.012268|
|          56|   -4.594720|   -6.307808|    0.823314|    0.012264|
|          57|   -4.593325|   -6.308930|    0.823283|    0.012259|
|          58|   -4.591885|   -6.310804|    0.823254|    0.012254|
|          59|   -4.590446|   -6.313366|    0.823227|    0.012248|
|          60|   -4.589041|   -6.316520|    0.823202|    0.012241|
|          61|   -4.587687|   -6.320181|    0.823180|    0.012234|
|          62|   -4.586389|   -6.324273|    0.823160|    0.012227|
|          63|   -4.585146|   -6.328714|    0.823142|    0.012219|
|          64|   -4.583952|   -6.333420|    0.823126|    0.012211|
|          65|   -4.582804|   -6.338343|    0.823112|    0.012203|
|          66|   -4.581702|   -6.343455|    0.823099|    0.012195|
|          67|   -4.580653|   -6.348741|    0.823089|    0.012187|
|          68|   -4.579672|   -6.354191|    0.823079|    0.012179|
|          69|   -4.578774|   -6.359789|    0.823071|    0.012170|
|          70|   -4.577977|   -6.365497|    0.823064|    0.012162|
|          71|   -4.577298|   -6.371256|    0.823058|    0.012153|
|          72|   -4.576748|   -6.377001|    0.823054|    0.012145|
|          73|   -4.576337|   -6.382657|    0.823050|    0.012137|
|          74|   -4.576064|   -6.388157|    0.823047|    0.012128|
|          75|   -4.575930|   -6.393464|    0.823045|    0.012120|
|          76|   -4.575929|   -6.398555|    0.823044|    0.012113|
|          77|   -4.576059|   -6.403416|    0.823044|    0.012105|
|          78|   -4.576314|   -6.408034|    0.823043|    0.012097|
|          79|   -4.576693|   -6.412402|    0.823044|    0.012090|
|          80|   -4.577195|   -6.416516|    0.823044|    0.012082|
|          81|   -4.577819|   -6.420376|    0.823045|    0.012075|
|          82|   -4.578561|   -6.423984|    0.823046|    0.012068|
|          83|   -4.579413|   -6.427348|    0.823047|    0.012061|
|          84|   -4.580364|   -6.430484|    0.823047|    0.012054|
|          85|   -4.581393|   -6.433417|    0.823048|    0.012048|
|          86|   -4.582474|   -6.436178|    0.823049|    0.012041|
|          87|   -4.583576|   -6.438811|    0.823049|    0.012035|
|          88|   -4.584665|   -6.441351|    0.823049|    0.012028|
|          89|   -4.585704|   -6.443829|    0.823049|    0.012022|
|          90|   -4.586662|   -6.446278|    0.823048|    0.012016|
|          91|   -4.587513|   -6.448732|    0.823048|    0.012010|
|          92|   -4.588240|   -6.451227|    0.823047|    0.012004|
|          93|   -4.588839|   -6.453790|    0.823047|    0.011998|
|          94|   -4.589316|   -6.456449|    0.823046|    0.011992|
|          95|   -4.589693|   -6.459230|    0.823046|    0.011987|
|          96|   -4.590001|   -6.462159|    0.823046|    0.011982|
|          97|   -4.590280|   -6.465259|    0.823047|    0.011976|
|          98|   -4.590581|   -6.468553|    0.823048|    0.011972|
|          99|   -4.590953|   -6.472064|    0.823050|    0.011967|
|         100|   -4.591450|   -6.475815|    0.823053|    0.011963|
|         101|   -4.592121|   -6.479828|    0.823056|    0.012027|
+-----------------------------------------------------------------------+
|Fixed CL Mode                           |Value                         |
+-----------------------------------------------------------------------+
|Current CL                              |0.823056                      |
|Target CL                               |0.824                         |
|Previous AOA                            |2.78394                       |
|Changed AoA by                          |0.00473369                    |
+-----------------------------------------------------------------------+
+----------------------------------------------------------------+
|  Inner_Iter|    rms[Rho]|     rms[nu]|          CL|          CD|
+----------------------------------------------------------------+
|         102|   -2.518186|   -6.392131|    0.823060|    0.012023|
|         103|   -2.903088|   -6.438586|    0.823066|    0.012020|
|         104|   -3.148847|   -6.456569|    0.823072|    0.012017|
|         105|   -3.228982|   -6.468921|    0.823080|    0.012014|
|         106|   -3.283313|   -6.479583|    0.823088|    0.012012|
|         107|   -3.353587|   -6.489569|    0.823097|    0.012011|
|         108|   -3.440426|   -6.499093|    0.823107|    0.012010|
|         109|   -3.530826|   -6.508243|    0.823117|    0.012009|
|         110|   -3.607766|   -6.517173|    0.823129|    0.012009|
|         111|   -3.662719|   -6.525860|    0.823140|    0.012009|
|         112|   -3.697801|   -6.534296|    0.823152|    0.012010|
|         113|   -3.717490|   -6.542618|    0.823165|    0.012011|
|         114|   -3.726027|   -6.551013|    0.823177|    0.012012|
|         115|   -3.729301|   -6.559609|    0.823190|    0.012014|
|         116|   -3.733730|   -6.568440|    0.823202|    0.012016|
|         117|   -3.743548|   -6.577454|    0.823214|    0.012019|
|         118|   -3.759678|   -6.586617|    0.823226|    0.012022|
|         119|   -3.780282|   -6.595930|    0.823237|    0.012024|
|         120|   -3.802207|   -6.605412|    0.823249|    0.012028|
|         121|   -3.822780|   -6.615071|    0.823259|    0.012031|
|         122|   -3.841110|   -6.624873|    0.823269|    0.012035|
|         123|   -3.858031|   -6.634719|    0.823279|    0.012038|
|         124|   -3.874962|   -6.644478|    0.823288|    0.012042|
|         125|   -3.892801|   -6.653988|    0.823296|    0.012046|
|         126|   -3.911536|   -6.663072|    0.823304|    0.012050|
|         127|   -3.930455|   -6.671633|    0.823312|    0.012054|
|         128|   -3.948558|   -6.679538|    0.823318|    0.012059|
|         129|   -3.964898|   -6.686813|    0.823325|    0.012063|
|         130|   -3.978783|   -6.693539|    0.823331|    0.012067|
|         131|   -3.989911|   -6.699726|    0.823337|    0.012072|
|         132|   -3.998477|   -6.705420|    0.823343|    0.012077|
|         133|   -4.005185|   -6.710705|    0.823349|    0.012081|
|         134|   -4.011083|   -6.715613|    0.823355|    0.012086|
|         135|   -4.017300|   -6.720184|    0.823361|    0.012091|
|         136|   -4.024777|   -6.724381|    0.823367|    0.012096|
|         137|   -4.034103|   -6.728225|    0.823374|    0.012101|
|         138|   -4.045444|   -6.731714|    0.823381|    0.012106|
|         139|   -4.058541|   -6.734817|    0.823389|    0.012111|
|         140|   -4.072745|   -6.737554|    0.823397|    0.012117|
|         141|   -4.087114|   -6.739943|    0.823405|    0.012122|
|         142|   -4.100581|   -6.742003|    0.823415|    0.012127|
|         143|   -4.112223|   -6.743677|    0.823425|    0.012133|
|         144|   -4.121531|   -6.744934|    0.823435|    0.012138|
|         145|   -4.128578|   -6.745757|    0.823447|    0.012144|
|         146|   -4.133972|   -6.746209|    0.823460|    0.012150|
|         147|   -4.138635|   -6.746268|    0.823473|    0.012155|
|         148|   -4.143510|   -6.745904|    0.823488|    0.012161|
|         149|   -4.149336|   -6.745063|    0.823504|    0.012167|
|         150|   -4.156525|   -6.743735|    0.823521|    0.012173|
|         151|   -4.165145|   -6.741925|    0.823539|    0.012179|
|         152|   -4.174965|   -6.739611|    0.823558|    0.012185|
|         153|   -4.185553|   -6.736815|    0.823579|    0.012190|
|         154|   -4.196382|   -6.733557|    0.823601|    0.012196|
|         155|   -4.206954|   -6.729878|    0.823624|    0.012202|
|         156|   -4.216896|   -6.725842|    0.823649|    0.012208|
|         157|   -4.226021|   -6.721516|    0.823674|    0.012214|
|         158|   -4.234332|   -6.717011|    0.823701|    0.012219|
|         159|   -4.241986|   -6.712432|    0.823729|    0.012225|
|         160|   -4.249219|   -6.707891|    0.823759|    0.012230|
|         161|   -4.256278|   -6.703500|    0.823789|    0.012236|
|         162|   -4.263367|   -6.699365|    0.823820|    0.012241|
|         163|   -4.270618|   -6.695586|    0.823852|    0.012246|
|         164|   -4.278090|   -6.692232|    0.823884|    0.012251|
|         165|   -4.285781|   -6.689400|    0.823917|    0.012256|
|         166|   -4.293652|   -6.687203|    0.823950|    0.012260|
|         167|   -4.301646|   -6.685701|    0.823983|    0.012265|
|         168|   -4.309710|   -6.684928|    0.824016|    0.012269|
|         169|   -4.317797|   -6.684909|    0.824049|    0.012273|
|         170|   -4.325874|   -6.685640|    0.824081|    0.012276|
|         171|   -4.333915|   -6.687101|    0.824112|    0.012280|
|         172|   -4.341897|   -6.689250|    0.824143|    0.012283|
|         173|   -4.349794|   -6.692018|    0.824172|    0.012285|
|         174|   -4.357569|   -6.695319|    0.824200|    0.012288|
|         175|   -4.365177|   -6.699044|    0.824227|    0.012290|
|         176|   -4.372565|   -6.703076|    0.824251|    0.012292|
|         177|   -4.379675|   -6.707290|    0.824274|    0.012293|
|         178|   -4.386447|   -6.711557|    0.824295|    0.012294|
|         179|   -4.392826|   -6.715743|    0.824313|    0.012295|
|         180|   -4.398761|   -6.719722|    0.824330|    0.012295|
|         181|   -4.404215|   -6.723372|    0.824343|    0.012296|
|         182|   -4.409159|   -6.726588|    0.824355|    0.012295|
|         183|   -4.413581|   -6.729298|    0.824364|    0.012295|
|         184|   -4.417483|   -6.731448|    0.824370|    0.012294|
|         185|   -4.420880|   -6.733038|    0.824375|    0.012293|
|         186|   -4.423805|   -6.734086|    0.824376|    0.012291|
|         187|   -4.426303|   -6.734655|    0.824376|    0.012290|
|         188|   -4.428430|   -6.734841|    0.824373|    0.012288|
|         189|   -4.430253|   -6.734782|    0.824367|    0.012285|
|         190|   -4.431847|   -6.734631|    0.824360|    0.012283|
|         191|   -4.433289|   -6.734556|    0.824351|    0.012280|
|         192|   -4.434658|   -6.734737|    0.824340|    0.012277|
|         193|   -4.436029|   -6.735356|    0.824328|    0.012274|
|         194|   -4.437476|   -6.736565|    0.824313|    0.012271|
|         195|   -4.439061|   -6.738480|    0.824298|    0.012267|
|         196|   -4.440840|   -6.741196|    0.824281|    0.012263|
|         197|   -4.442859|   -6.744791|    0.824263|    0.012260|
|         198|   -4.445152|   -6.749328|    0.824244|    0.012256|
|         199|   -4.447742|   -6.754822|    0.824225|    0.012251|
|         200|   -4.450640|   -6.761284|    0.824205|    0.012247|
|         201|   -4.453847|   -6.768698|    0.824185|    0.012228|
+-----------------------------------------------------------------------+
|Fixed CL Mode                           |Value                         |
+-----------------------------------------------------------------------+
|Current CL                              |0.824185                      |
|Target CL                               |0.824                         |
|Previous AOA                            |2.78867                       |
|Changed AoA by                          |-0.00102446                   |
+-----------------------------------------------------------------------+
+----------------------------------------------------------------+
|  Inner_Iter|    rms[Rho]|     rms[nu]|          CL|          CD|
+----------------------------------------------------------------+
|         202|   -3.182416|   -6.757319|    0.824164|    0.012224|
|         203|   -3.566716|   -6.776094|    0.824143|    0.012219|
|         204|   -3.811177|   -6.788735|    0.824122|    0.012215|
|         205|   -3.888944|   -6.800757|    0.824101|    0.012210|
|         206|   -3.939554|   -6.812974|    0.824080|    0.012205|
|         207|   -4.003910|   -6.825486|    0.824060|    0.012201|
|         208|   -4.081002|   -6.838216|    0.824040|    0.012196|
|         209|   -4.156570|   -6.851017|    0.824021|    0.012192|
|         210|   -4.215115|   -6.863689|    0.824002|    0.012187|
|         211|   -4.252118|   -6.875982|    0.823985|    0.012182|
|         212|   -4.272695|   -6.887615|    0.823968|    0.012178|
|         213|   -4.282629|   -6.898333|    0.823952|    0.012174|
|         214|   -4.286130|   -6.907909|    0.823937|    0.012169|
|         215|   -4.287337|   -6.916136|    0.823924|    0.012165|
|         216|   -4.290085|   -6.922836|    0.823912|    0.012161|
|         217|   -4.296601|   -6.927882|    0.823901|    0.012157|
|         218|   -4.306925|   -6.931230|    0.823892|    0.012153|
|         219|   -4.319382|   -6.932932|    0.823884|    0.012149|
|         220|   -4.331696|   -6.933122|    0.823878|    0.012146|
|         221|   -4.342214|   -6.931998|    0.823873|    0.012143|
|         222|   -4.350558|   -6.929801|    0.823870|    0.012140|
|         223|   -4.357386|   -6.926795|    0.823868|    0.012137|
|         224|   -4.363645|   -6.923245|    0.823868|    0.012134|
|         225|   -4.369979|   -6.919419|    0.823869|    0.012131|
|         226|   -4.376581|   -6.915576|    0.823873|    0.012129|
|         227|   -4.383334|   -6.911942|    0.823877|    0.012127|
|         228|   -4.389999|   -6.908715|    0.823883|    0.012125|
|         229|   -4.396343|   -6.906067|    0.823891|    0.012124|
|         230|   -4.402180|   -6.904136|    0.823900|    0.012122|
|         231|   -4.407408|   -6.903037|    0.823910|    0.012121|
|         232|   -4.412041|   -6.902843|    0.823922|    0.012120|
|         233|   -4.416236|   -6.903612|    0.823934|    0.012120|
|         234|   -4.420273|   -6.905366|    0.823948|    0.012119|
|         235|   -4.424484|   -6.908105|    0.823963|    0.012119|
|         236|   -4.429181|   -6.911793|    0.823979|    0.012119|
|         237|   -4.434583|   -6.916366|    0.823995|    0.012119|
|         238|   -4.440779|   -6.921737|    0.824012|    0.012120|
|         239|   -4.447724|   -6.927801|    0.824029|    0.012120|
|         240|   -4.455246|   -6.934443|    0.824047|    0.012121|
|         241|   -4.463088|   -6.941536|    0.824065|    0.012122|
|         242|   -4.470961|   -6.948951|    0.824083|    0.012123|
|         243|   -4.478605|   -6.956546|    0.824101|    0.012125|
|         244|   -4.485858|   -6.964166|    0.824119|    0.012126|
|         245|   -4.492679|   -6.971643|    0.824136|    0.012127|
|         246|   -4.499150|   -6.978794|    0.824153|    0.012129|
|         247|   -4.505434|   -6.985429|    0.824170|    0.012131|
|         248|   -4.511717|   -6.991367|    0.824186|    0.012132|
|         249|   -4.518155|   -6.996450|    0.824201|    0.012134|
|         250|   -4.524830|   -7.000560|    0.824215|    0.012136|
|         251|   -4.531743|   -7.003632|    0.824229|    0.012138|
|         252|   -4.538820|   -7.005656|    0.824241|    0.012140|
|         253|   -4.545938|   -7.006683|    0.824252|    0.012141|
|         254|   -4.552954|   -7.006806|    0.824262|    0.012143|
|         255|   -4.559741|   -7.006155|    0.824271|    0.012145|
|         256|   -4.566208|   -7.004882|    0.824279|    0.012147|
|         257|   -4.572311|   -7.003152|    0.824285|    0.012149|
|         258|   -4.578049|   -7.001126|    0.824291|    0.012150|
|         259|   -4.583457|   -6.998952|    0.824295|    0.012152|
|         260|   -4.588581|   -6.996758|    0.824297|    0.012154|
|         261|   -4.593471|   -6.994649|    0.824299|    0.012155|
|         262|   -4.598161|   -6.992701|    0.824300|    0.012157|
|         263|   -4.602669|   -6.990960|    0.824299|    0.012158|
|         264|   -4.606991|   -6.989443|    0.824298|    0.012159|
|         265|   -4.611109|   -6.988142|    0.824296|    0.012161|
|         266|   -4.614994|   -6.987018|    0.824293|    0.012162|
|         267|   -4.618612|   -6.986014|    0.824289|    0.012163|
|         268|   -4.621926|   -6.985052|    0.824285|    0.012164|
|         269|   -4.624905|   -6.984041|    0.824280|    0.012165|
|         270|   -4.627516|   -6.982884|    0.824275|    0.012166|
|         271|   -4.629733|   -6.981482|    0.824269|    0.012167|
|         272|   -4.631534|   -6.979742|    0.824264|    0.012168|
|         273|   -4.632899|   -6.977584|    0.824258|    0.012169|
|         274|   -4.633814|   -6.974934|    0.824252|    0.012170|
|         275|   -4.634271|   -6.971756|    0.824247|    0.012171|
|         276|   -4.634270|   -6.968041|    0.824242|    0.012172|
|         277|   -4.633815|   -6.963806|    0.824237|    0.012173|
|         278|   -4.632923|   -6.959093|    0.824232|    0.012174|
|         279|   -4.631615|   -6.953966|    0.824228|    0.012175|
|         280|   -4.629923|   -6.948504|    0.824224|    0.012176|
|         281|   -4.627884|   -6.942804|    0.824221|    0.012176|
|         282|   -4.625541|   -6.936962|    0.824219|    0.012177|
|         283|   -4.622939|   -6.931074|    0.824217|    0.012178|
|         284|   -4.620128|   -6.925236|    0.824215|    0.012179|
|         285|   -4.617157|   -6.919544|    0.824215|    0.012180|
|         286|   -4.614076|   -6.914075|    0.824214|    0.012180|
|         287|   -4.610933|   -6.908895|    0.824215|    0.012181|
|         288|   -4.607774|   -6.904056|    0.824216|    0.012182|
|         289|   -4.604641|   -6.899596|    0.824217|    0.012182|
|         290|   -4.601575|   -6.895547|    0.824219|    0.012183|
|         291|   -4.598612|   -6.891927|    0.824221|    0.012184|
|         292|   -4.595783|   -6.888740|    0.824223|    0.012184|
|         293|   -4.593118|   -6.885978|    0.824226|    0.012185|
|         294|   -4.590641|   -6.883627|    0.824229|    0.012185|
|         295|   -4.588372|   -6.881659|    0.824233|    0.012185|
|         296|   -4.586328|   -6.880042|    0.824236|    0.012186|
|         297|   -4.584523|   -6.878738|    0.824240|    0.012186|
|         298|   -4.582968|   -6.877704|    0.824244|    0.012186|
|         299|   -4.581670|   -6.876896|    0.824248|    0.012186|
|         300|   -4.580635|   -6.876269|    0.824252|    0.012186|
|         301|   -4.579865|   -6.875780|    0.824256|    0.012168|
+-----------------------------------------------------------------------+
|Fixed CL Mode                           |Value                         |
+-----------------------------------------------------------------------+
|Current CL                              |0.824256                      |
|Target CL                               |0.824                         |
|Previous AOA                            |2.78765                       |
|Changed AoA by                          |-0.00125956                   |
+-----------------------------------------------------------------------+
+----------------------------------------------------------------+
|  Inner_Iter|    rms[Rho]|     rms[nu]|          CL|          CD|
+----------------------------------------------------------------+
|         302|   -3.092886|   -6.830139|    0.824260|    0.012167|
|         303|   -3.476484|   -6.851903|    0.824264|    0.012167|
|         304|   -3.719112|   -6.858527|    0.824268|    0.012166|
|         305|   -3.797349|   -6.861981|    0.824272|    0.012166|
|         306|   -3.849992|   -6.864209|    0.824276|    0.012165|
|         307|   -3.917356|   -6.865704|    0.824279|    0.012164|
|         308|   -3.999186|   -6.866663|    0.824283|    0.012164|
|         309|   -4.082223|   -6.867228|    0.824287|    0.012163|
|         310|   -4.150781|   -6.867497|    0.824290|    0.012162|
|         311|   -4.198576|   -6.867530|    0.824293|    0.012160|
|         312|   -4.228864|   -6.867376|    0.824297|    0.012159|
|         313|   -4.246179|   -6.867122|    0.824300|    0.012158|
|         314|   -4.254265|   -6.866860|    0.824303|    0.012156|
|         315|   -4.257920|   -6.866662|    0.824306|    0.012155|
|         316|   -4.262347|   -6.866557|    0.824310|    0.012153|
|         317|   -4.271006|   -6.866548|    0.824313|    0.012152|
|         318|   -4.284623|   -6.866639|    0.824316|    0.012150|
|         319|   -4.301657|   -6.866842|    0.824319|    0.012149|
|         320|   -4.319593|   -6.867170|    0.824322|    0.012147|
|         321|   -4.336428|   -6.867634|    0.824325|    0.012145|
|         322|   -4.351593|   -6.868236|    0.824328|    0.012143|
|         323|   -4.365774|   -6.868967|    0.824331|    0.012142|
|         324|   -4.379998|   -6.869815|    0.824334|    0.012140|
|         325|   -4.394828|   -6.870772|    0.824337|    0.012138|
|         326|   -4.410134|   -6.871834|    0.824340|    0.012136|
|         327|   -4.425293|   -6.873005|    0.824343|    0.012135|
|         328|   -4.439541|   -6.874292|    0.824346|    0.012133|
|         329|   -4.452227|   -6.875703|    0.824349|    0.012131|
|         330|   -4.462944|   -6.877248|    0.824351|    0.012130|
|         331|   -4.471596|   -6.878935|    0.824354|    0.012128|
|         332|   -4.478417|   -6.880772|    0.824357|    0.012126|
|         333|   -4.483948|   -6.882761|    0.824360|    0.012125|
|         334|   -4.488917|   -6.884903|    0.824362|    0.012123|
|         335|   -4.494060|   -6.887189|    0.824365|    0.012122|
|         336|   -4.499958|   -6.889619|    0.824367|    0.012121|
|         337|   -4.506931|   -6.892183|    0.824369|    0.012120|
|         338|   -4.514998|   -6.894868|    0.824372|    0.012118|
|         339|   -4.523895|   -6.897659|    0.824374|    0.012117|
|         340|   -4.533129|   -6.900544|    0.824376|    0.012116|
|         341|   -4.542068|   -6.903510|    0.824377|    0.012116|
|         342|   -4.550080|   -6.906549|    0.824379|    0.012115|
|         343|   -4.556681|   -6.909652|    0.824380|    0.012114|
|         344|   -4.561672|   -6.912818|    0.824381|    0.012113|
|         345|   -4.565175|   -6.916044|    0.824382|    0.012113|
|         346|   -4.567586|   -6.919325|    0.824383|    0.012112|
|         347|   -4.569430|   -6.922660|    0.824383|    0.012112|
|         348|   -4.571219|   -6.926049|    0.824384|    0.012112|
|         349|   -4.573330|   -6.929493|    0.824383|    0.012111|
|         350|   -4.575949|   -6.932993|    0.824383|    0.012111|
|         351|   -4.579077|   -6.936550|    0.824382|    0.012111|
|         352|   -4.582568|   -6.940169|    0.824381|    0.012111|
|         353|   -4.586195|   -6.943857|    0.824380|    0.012111|
|         354|   -4.589716|   -6.947613|    0.824378|    0.012111|
|         355|   -4.592937|   -6.951440|    0.824376|    0.012112|
|         356|   -4.595746|   -6.955338|    0.824374|    0.012112|
|         357|   -4.598126|   -6.959309|    0.824371|    0.012112|
|         358|   -4.600141|   -6.963358|    0.824367|    0.012112|
|         359|   -4.601905|   -6.967491|    0.824364|    0.012113|
|         360|   -4.603555|   -6.971714|    0.824360|    0.012113|
|         361|   -4.605218|   -6.976033|    0.824355|    0.012114|
|         362|   -4.606996|   -6.980460|    0.824351|    0.012114|
|         363|   -4.608959|   -6.985006|    0.824346|    0.012115|
|         364|   -4.611147|   -6.989686|    0.824340|    0.012115|
|         365|   -4.613583|   -6.994515|    0.824335|    0.012116|
|         366|   -4.616272|   -6.999507|    0.824329|    0.012116|
|         367|   -4.619220|   -7.004675|    0.824323|    0.012117|
|         368|   -4.622434|   -7.010034|    0.824316|    0.012117|
|         369|   -4.625921|   -7.015595|    0.824310|    0.012118|
|         370|   -4.629696|   -7.021365|    0.824303|    0.012118|
|         371|   -4.633772|   -7.027349|    0.824297|    0.012119|
|         372|   -4.638165|   -7.033546|    0.824290|    0.012120|
|         373|   -4.642884|   -7.039956|    0.824284|    0.012120|
|         374|   -4.647938|   -7.046575|    0.824278|    0.012121|
|         375|   -4.653329|   -7.053391|    0.824271|    0.012121|
|         376|   -4.659055|   -7.060385|    0.824266|    0.012122|
|         377|   -4.665110|   -7.067533|    0.824260|    0.012122|
|         378|   -4.671486|   -7.074807|    0.824254|    0.012123|
|         379|   -4.678170|   -7.082167|    0.824249|    0.012123|
|         380|   -4.685146|   -7.089572|    0.824244|    0.012124|
|         381|   -4.692398|   -7.096970|    0.824240|    0.012124|
|         382|   -4.699903|   -7.104298|    0.824236|    0.012125|
|         383|   -4.707639|   -7.111497|    0.824232|    0.012125|
|         384|   -4.715576|   -7.118512|    0.824229|    0.012126|
|         385|   -4.723684|   -7.125285|    0.824226|    0.012126|
|         386|   -4.731928|   -7.131768|    0.824224|    0.012126|
|         387|   -4.740267|   -7.137916|    0.824222|    0.012126|
|         388|   -4.748659|   -7.143694|    0.824221|    0.012127|
|         389|   -4.757057|   -7.149073|    0.824219|    0.012127|
|         390|   -4.765410|   -7.154046|    0.824219|    0.012127|
|         391|   -4.773666|   -7.158638|    0.824218|    0.012127|
|         392|   -4.781769|   -7.162886|    0.824218|    0.012127|
|         393|   -4.789661|   -7.166844|    0.824219|    0.012127|
|         394|   -4.797285|   -7.170575|    0.824219|    0.012127|
|         395|   -4.804581|   -7.174155|    0.824220|    0.012127|
|         396|   -4.811494|   -7.177667|    0.824222|    0.012127|
|         397|   -4.817970|   -7.181198|    0.824223|    0.012127|
|         398|   -4.823960|   -7.184836|    0.824225|    0.012127|
|         399|   -4.829421|   -7.188666|    0.824227|    0.012127|
|         400|   -4.834316|   -7.192768|    0.824229|    0.012127|
|         401|   -4.838621|   -7.197213|    0.824231|    0.012110|
+-----------------------------------------------------------------------+
|Fixed CL Mode                           |Value                         |
+-----------------------------------------------------------------------+
|Current CL                              |0.824231                      |
|Target CL                               |0.824                         |
|Previous AOA                            |2.78639                       |
|Changed AoA by                          |-0.00114361                   |
+-----------------------------------------------------------------------+
+----------------------------------------------------------------+
|  Inner_Iter|    rms[Rho]|     rms[nu]|          CL|          CD|
+----------------------------------------------------------------+
|         402|   -3.135038|   -7.068146|    0.824234|    0.012110|
|         403|   -3.518787|   -7.130418|    0.824236|    0.012109|
|         404|   -3.760880|   -7.155610|    0.824239|    0.012109|
|         405|   -3.838737|   -7.172866|    0.824242|    0.012109|
|         406|   -3.891989|   -7.187561|    0.824244|    0.012109|
|         407|   -3.961045|   -7.200976|    0.824247|    0.012108|
|         408|   -4.046171|   -7.213504|    0.824250|    0.012108|
|         409|   -4.134707|   -7.225380|    0.824253|    0.012108|
|         410|   -4.210595|   -7.236726|    0.824256|    0.012107|
|         411|   -4.265928|   -7.247517|    0.824259|    0.012107|
|         412|   -4.302436|   -7.257711|    0.824261|    0.012107|
|         413|   -4.323838|   -7.267442|    0.824264|    0.012106|
|         414|   -4.333755|   -7.276962|    0.824267|    0.012106|
|         415|   -4.337699|   -7.286452|    0.824269|    0.012106|
|         416|   -4.341967|   -7.295923|    0.824271|    0.012106|
|         417|   -4.350826|   -7.305263|    0.824273|    0.012105|
|         418|   -4.365300|   -7.314370|    0.824275|    0.012105|
|         419|   -4.383724|   -7.323212|    0.824277|    0.012105|
|         420|   -4.403225|   -7.331816|    0.824279|    0.012105|
|         421|   -4.421458|   -7.340211|    0.824280|    0.012105|
|         422|   -4.437737|   -7.348352|    0.824282|    0.012104|
|         423|   -4.452877|   -7.356109|    0.824283|    0.012104|
|         424|   -4.468108|   -7.363285|    0.824283|    0.012104|
|         425|   -4.484106|   -7.369714|    0.824284|    0.012104|
|         426|   -4.500697|   -7.375263|    0.824284|    0.012104|
|         427|   -4.517110|   -7.379821|    0.824284|    0.012104|
|         428|   -4.532398|   -7.383376|    0.824284|    0.012104|
|         429|   -4.545766|   -7.385958|    0.824284|    0.012104|
|         430|   -4.556746|   -7.387645|    0.824283|    0.012104|
|         431|   -4.565268|   -7.388539|    0.824283|    0.012104|
|         432|   -4.571692|   -7.388767|    0.824282|    0.012104|
|         433|   -4.576752|   -7.388455|    0.824280|    0.012104|
|         434|   -4.581396|   -7.387709|    0.824279|    0.012104|
|         435|   -4.586566|   -7.386570|    0.824277|    0.012104|
|         436|   -4.593002|   -7.385164|    0.824276|    0.012104|
|         437|   -4.601123|   -7.383552|    0.824274|    0.012104|
|         438|   -4.610994|   -7.381756|    0.824272|    0.012105|
|         439|   -4.622333|   -7.379791|    0.824269|    0.012105|
|         440|   -4.634567|   -7.377654|    0.824267|    0.012105|
|         441|   -4.646924|   -7.375360|    0.824264|    0.012105|
|         442|   -4.658578|   -7.372940|    0.824262|    0.012106|
|         443|   -4.668853|   -7.370427|    0.824259|    0.012106|
|         444|   -4.677410|   -7.367858|    0.824256|    0.012106|
|         445|   -4.684344|   -7.365262|    0.824253|    0.012107|
|         446|   -4.690137|   -7.362671|    0.824250|    0.012107|
|         447|   -4.695497|   -7.360107|    0.824247|    0.012107|
|         448|   -4.701142|   -7.357577|    0.824243|    0.012108|
|         449|   -4.707638|   -7.355082|    0.824240|    0.012108|
|         450|   -4.715304|   -7.352608|    0.824236|    0.012109|
|         451|   -4.724192|   -7.350134|    0.824232|    0.012110|
|         452|   -4.734124|   -7.347680|    0.824228|    0.012110|
|         453|   -4.744764|   -7.345155|    0.824224|    0.012111|
|         454|   -4.755707|   -7.342519|    0.824219|    0.012111|
|         455|   -4.766570|   -7.339727|    0.824215|    0.012112|
|         456|   -4.777061|   -7.336737|    0.824210|    0.012112|
|         457|   -4.787028|   -7.333509|    0.824205|    0.012113|
|         458|   -4.796461|   -7.330027|    0.824199|    0.012114|
|         459|   -4.805461|   -7.326281|    0.824194|    0.012114|
|         460|   -4.814190|   -7.322283|    0.824188|    0.012115|
|         461|   -4.822817|   -7.318060|    0.824182|    0.012116|
|         462|   -4.831482|   -7.313661|    0.824175|    0.012116|
|         463|   -4.840267|   -7.309154|    0.824169|    0.012117|
|         464|   -4.849199|   -7.304614|    0.824162|    0.012118|
|         465|   -4.858257|   -7.300129|    0.824155|    0.012118|
|         466|   -4.867390|   -7.295792|    0.824148|    0.012119|
|         467|   -4.876536|   -7.291698|    0.824141|    0.012120|
|         468|   -4.885632|   -7.287943|    0.824133|    0.012120|
|         469|   -4.894625|   -7.284619|    0.824126|    0.012121|
|         470|   -4.903475|   -7.281805|    0.824118|    0.012122|
|         471|   -4.912149|   -7.279568|    0.824111|    0.012122|
|         472|   -4.920621|   -7.277964|    0.824104|    0.012123|
|         473|   -4.928860|   -7.277027|    0.824097|    0.012123|
|         474|   -4.936836|   -7.276773|    0.824090|    0.012124|
|         475|   -4.944513|   -7.277194|    0.824083|    0.012124|
|         476|   -4.951851|   -7.278262|    0.824077|    0.012125|
|         477|   -4.958815|   -7.279921|    0.824071|    0.012125|
|         478|   -4.965373|   -7.282095|    0.824065|    0.012125|
|         479|   -4.971502|   -7.284684|    0.824060|    0.012126|
|         480|   -4.977189|   -7.287569|    0.824055|    0.012126|
|         481|   -4.982434|   -7.290612|    0.824051|    0.012126|
|         482|   -4.987252|   -7.293663|    0.824047|    0.012127|
|         483|   -4.991665|   -7.296568|    0.824044|    0.012127|
|         484|   -4.995709|   -7.299173|    0.824041|    0.012127|
|         485|   -4.999429|   -7.301342|    0.824039|    0.012127|
|         486|   -5.002873|   -7.302956|    0.824037|    0.012127|
|         487|   -5.006098|   -7.303929|    0.824036|    0.012127|
|         488|   -5.009162|   -7.304212|    0.824036|    0.012127|
|         489|   -5.012126|   -7.303797|    0.824036|    0.012127|
|         490|   -5.015049|   -7.302717|    0.824037|    0.012127|
|         491|   -5.017989|   -7.301044|    0.824038|    0.012127|
|         492|   -5.021000|   -7.298883|    0.824040|    0.012127|
|         493|   -5.024134|   -7.296362|    0.824042|    0.012126|
|         494|   -5.027436|   -7.293626|    0.824044|    0.012126|
|         495|   -5.030945|   -7.290823|    0.824047|    0.012126|
|         496|   -5.034693|   -7.288097|    0.824051|    0.012125|
|         497|   -5.038708|   -7.285586|    0.824055|    0.012125|
|         498|   -5.043008|   -7.283410|    0.824059|    0.012124|
|         499|   -5.047606|   -7.281670|    0.824063|    0.012123|
|         500|   -5.052509|   -7.280446|    0.824068|    0.012123|
|         501|   -5.057715|   -7.279790|    0.824073|    0.012117|
+-----------------------------------------------------------------------+
|Fixed CL Mode                           |Value                         |
+-----------------------------------------------------------------------+
|Current CL                              |0.824073                      |
|Target CL                               |0.824                         |
|Previous AOA                            |2.78525                       |
|Changed AoA by                          |-0.000339235                  |
+-----------------------------------------------------------------------+
+----------------------------------------------------------------+
|  Inner_Iter|    rms[Rho]|     rms[nu]|          CL|          CD|
+----------------------------------------------------------------+
|         502|   -3.662554|   -7.257290|    0.824078|    0.012117|
|         503|   -4.043787|   -7.268801|    0.824083|    0.012116|
|         504|   -4.278790|   -7.273168|    0.824089|    0.012115|
|         505|   -4.352657|   -7.276615|    0.824094|    0.012114|
|         506|   -4.403864|   -7.280052|    0.824100|    0.012113|
|         507|   -4.470179|   -7.283614|    0.824105|    0.012112|
|         508|   -4.551080|   -7.287266|    0.824111|    0.012111|
|         509|   -4.634413|   -7.290933|    0.824116|    0.012110|
|         510|   -4.706003|   -7.294516|    0.824122|    0.012109|
|         511|   -4.759623|   -7.297897|    0.824127|    0.012109|
|         512|   -4.796993|   -7.300965|    0.824132|    0.012108|
|         513|   -4.820906|   -7.303640|    0.824137|    0.012107|
|         514|   -4.833906|   -7.305866|    0.824142|    0.012105|
|         515|   -4.840481|   -7.307601|    0.824147|    0.012104|
|         516|   -4.846295|   -7.308812|    0.824151|    0.012103|
|         517|   -4.855482|   -7.309484|    0.824155|    0.012102|
|         518|   -4.869277|   -7.309631|    0.824159|    0.012101|
|         519|   -4.886430|   -7.309303|    0.824162|    0.012100|
|         520|   -4.904570|   -7.308577|    0.824166|    0.012099|
|         521|   -4.921773|   -7.307545|    0.824168|    0.012098|
|         522|   -4.937509|   -7.306305|    0.824171|    0.012097|
|         523|   -4.952439|   -7.304953|    0.824173|    0.012097|
|         524|   -4.967486|   -7.303581|    0.824175|    0.012096|
|         525|   -4.983022|   -7.302281|    0.824177|    0.012095|
|         526|   -4.998656|   -7.301134|    0.824178|    0.012094|
|         527|   -5.013515|   -7.300214|    0.824179|    0.012093|
|         528|   -5.026663|   -7.299588|    0.824179|    0.012092|
|         529|   -5.037425|   -7.299306|    0.824180|    0.012091|
|         530|   -5.045539|   -7.299406|    0.824179|    0.012091|
|         531|   -5.051162|   -7.299908|    0.824179|    0.012090|
|         532|   -5.054820|   -7.300819|    0.824178|    0.012089|
|         533|   -5.057297|   -7.302130|    0.824178|    0.012089|
|         534|   -5.059459|   -7.303817|    0.824176|    0.012088|
|         535|   -5.062074|   -7.305843|    0.824175|    0.012087|
|         536|   -5.065672|   -7.308162|    0.824173|    0.012087|
|         537|   -5.070480|   -7.310721|    0.824172|    0.012087|
|         538|   -5.076420|   -7.313463|    0.824170|    0.012086|
|         539|   -5.083155|   -7.316330|    0.824168|    0.012086|
|         540|   -5.090165|   -7.319267|    0.824165|    0.012086|
|         541|   -5.096851|   -7.322224|    0.824163|    0.012085|
|         542|   -5.102664|   -7.325159|    0.824161|    0.012085|
|         543|   -5.107242|   -7.328042|    0.824158|    0.012085|
|         544|   -5.110500|   -7.330851|    0.824155|    0.012085|
|         545|   -5.112649|   -7.333577|    0.824153|    0.012085|
|         546|   -5.114120|   -7.336223|    0.824150|    0.012086|
|         547|   -5.115434|   -7.338798|    0.824147|    0.012086|
|         548|   -5.117071|   -7.341322|    0.824145|    0.012086|
|         549|   -5.119377|   -7.343817|    0.824142|    0.012087|
|         550|   -5.122524|   -7.346306|    0.824139|    0.012087|
|         551|   -5.126509|   -7.348814|    0.824137|    0.012088|
|         552|   -5.131200|   -7.351362|    0.824134|    0.012088|
|         553|   -5.136387|   -7.353967|    0.824131|    0.012089|
|         554|   -5.141844|   -7.356637|    0.824128|    0.012090|
|         555|   -5.147375|   -7.359370|    0.824126|    0.012091|
|         556|   -5.152855|   -7.362154|    0.824123|    0.012092|
|         557|   -5.158234|   -7.364966|    0.824120|    0.012092|
|         558|   -5.163533|   -7.367773|    0.824117|    0.012094|
|         559|   -5.168823|   -7.370535|    0.824115|    0.012095|
|         560|   -5.174191|   -7.373204|    0.824112|    0.012096|
|         561|   -5.179723|   -7.375733|    0.824109|    0.012097|
|         562|   -5.185480|   -7.378070|    0.824106|    0.012098|
|         563|   -5.191493|   -7.380170|    0.824103|    0.012099|
|         564|   -5.197764|   -7.381995|    0.824099|    0.012101|
|         565|   -5.204270|   -7.383514|    0.824096|    0.012102|
|         566|   -5.210975|   -7.384715|    0.824093|    0.012103|
|         567|   -5.217836|   -7.385599|    0.824090|    0.012105|
|         568|   -5.224806|   -7.386183|    0.824086|    0.012106|
|         569|   -5.231841|   -7.386502|    0.824083|    0.012108|
|         570|   -5.238901|   -7.386606|    0.824079|    0.012109|
|         571|   -5.245941|   -7.386556|    0.824076|    0.012111|
|         572|   -5.252917|   -7.386422|    0.824072|    0.012112|
|         573|   -5.259778|   -7.386279|    0.824068|    0.012113|
|         574|   -5.266470|   -7.386202|    0.824065|    0.012115|
|         575|   -5.272931|   -7.386263|    0.824061|    0.012116|
|         576|   -5.279097|   -7.386527|    0.824057|    0.012118|
|         577|   -5.284903|   -7.387051|    0.824054|    0.012119|
|         578|   -5.290286|   -7.387880|    0.824050|    0.012120|
|         579|   -5.295190|   -7.389044|    0.824046|    0.012122|
|         580|   -5.299566|   -7.390560|    0.824043|    0.012123|
|         581|   -5.303377|   -7.392429|    0.824039|    0.012124|
|         582|   -5.306602|   -7.394637|    0.824036|    0.012126|
|         583|   -5.309232|   -7.397156|    0.824033|    0.012127|
|         584|   -5.311275|   -7.399943|    0.824029|    0.012128|
|         585|   -5.312753|   -7.402943|    0.824026|    0.012129|
|         586|   -5.313703|   -7.406093|    0.824023|    0.012130|
|         587|   -5.314175|   -7.409319|    0.824021|    0.012131|
|         588|   -5.314227|   -7.412547|    0.824018|    0.012132|
|         589|   -5.313929|   -7.415700|    0.824015|    0.012133|
|         590|   -5.313352|   -7.418705|    0.824013|    0.012133|
|         591|   -5.312573|   -7.421496|    0.824011|    0.012134|
|         592|   -5.311670|   -7.424018|    0.824009|    0.012135|
|         593|   -5.310717|   -7.426231|    0.824007|    0.012135|
|         594|   -5.309787|   -7.428108|    0.824005|    0.012136|
|         595|   -5.308948|   -7.429643|    0.824004|    0.012136|
|         596|   -5.308264|   -7.430843|    0.824002|    0.012137|
|         597|   -5.307791|   -7.431731|    0.824001|    0.012137|
|         598|   -5.307581|   -7.432341|    0.824000|    0.012137|
|         599|   -5.307678|   -7.432718|    0.823999|    0.012138|
|         600|   -5.308122|   -7.432910|    0.823998|    0.012138|
|         601|   -5.308943|   -7.432966|    0.823998|    0.012138|
+-----------------------------------------------------------------------+
|Fixed CL Mode                           |Value                         |
+-----------------------------------------------------------------------+
|Current CL                              |0.823998                      |
|Target CL                               |0.824                         |
|Previous AOA                            |2.78491                       |
|Changed AoA by                          |7.51307e-06                   |
+-----------------------------------------------------------------------+
+----------------------------------------------------------------+
|  Inner_Iter|    rms[Rho]|     rms[nu]|          CL|          CD|
+----------------------------------------------------------------+
|         602|   -5.162007|   -7.432921|    0.823998|    0.012138|
|         603|   -5.283042|   -7.432853|    0.823997|    0.012138|
|         604|   -5.312005|   -7.432760|    0.823997|    0.012138|
|         605|   -5.319457|   -7.432670|    0.823997|    0.012138|
|         606|   -5.323347|   -7.432598|    0.823997|    0.012138|
|         607|   -5.326562|   -7.432547|    0.823997|    0.012137|
|         608|   -5.329712|   -7.432508|    0.823997|    0.012137|
|         609|   -5.332967|   -7.432465|    0.823998|    0.012137|
|         610|   -5.336478|   -7.432391|    0.823998|    0.012136|
|         611|   -5.340404|   -7.432258|    0.823998|    0.012136|
|         612|   -5.344842|   -7.432033|    0.823999|    0.012135|
|         613|   -5.349811|   -7.431685|    0.823999|    0.012135|
|         614|   -5.355284|   -7.431186|    0.824000|    0.012134|
|         615|   -5.361214|   -7.430513|    0.824000|    0.012133|
|         616|   -5.367534|   -7.429653|    0.824001|    0.012133|
|         617|   -5.374148|   -7.428599|    0.824001|    0.012132|
|         618|   -5.380940|   -7.427355|    0.824002|    0.012131|
|         619|   -5.387778|   -7.425937|    0.824002|    0.012130|
|         620|   -5.394539|   -7.424368|    0.824003|    0.012130|
|         621|   -5.401122|   -7.422681|    0.824003|    0.012129|
|         622|   -5.407457|   -7.420917|    0.824004|    0.012128|
|         623|   -5.413499|   -7.419121|    0.824004|    0.012127|
|         624|   -5.419221|   -7.417342|    0.824004|    0.012126|
|         625|   -5.424605|   -7.415628|    0.824004|    0.012125|
|         626|   -5.429634|   -7.414029|    0.824005|    0.012124|
|         627|   -5.434292|   -7.412587|    0.824005|    0.012123|
|         628|   -5.438561|   -7.411343|    0.824005|    0.012122|
|         629|   -5.442426|   -7.410332|    0.824005|    0.012121|
|         630|   -5.445874|   -7.409580|    0.824005|    0.012120|
|         631|   -5.448901|   -7.409109|    0.824005|    0.012119|
|         632|   -5.451516|   -7.408933|    0.824005|    0.012118|
|         633|   -5.453741|   -7.409059|    0.824005|    0.012117|
|         634|   -5.455614|   -7.409486|    0.824005|    0.012116|
|         635|   -5.457184|   -7.410210|    0.824005|    0.012115|
|         636|   -5.458511|   -7.411218|    0.824006|    0.012115|
|         637|   -5.459658|   -7.412495|    0.824006|    0.012114|
|         638|   -5.460689|   -7.414024|    0.824006|    0.012113|
|         639|   -5.461665|   -7.415783|    0.824006|    0.012112|
|         640|   -5.462642|   -7.417752|    0.824006|    0.012111|
|         641|   -5.463670|   -7.419909|    0.824006|    0.012110|
|         642|   -5.464790|   -7.422235|    0.824007|    0.012109|
|         643|   -5.466037|   -7.424711|    0.824007|    0.012109|
|         644|   -5.467442|   -7.427321|    0.824007|    0.012108|
|         645|   -5.469029|   -7.430053|    0.824008|    0.012107|
|         646|   -5.470818|   -7.432897|    0.824009|    0.012106|
|         647|   -5.472825|   -7.435845|    0.824009|    0.012106|
|         648|   -5.475063|   -7.438899|    0.824010|    0.012105|
|         649|   -5.477540|   -7.442056|    0.824011|    0.012105|
|         650|   -5.480259|   -7.445321|    0.824012|    0.012104|
|         651|   -5.483221|   -7.448697|    0.824012|    0.012104|
|         652|   -5.486422|   -7.452190|    0.824013|    0.012104|
|         653|   -5.489857|   -7.455806|    0.824015|    0.012103|
|         654|   -5.493517|   -7.459553|    0.824016|    0.012103|
|         655|   -5.497389|   -7.463437|    0.824017|    0.012103|
|         656|   -5.501459|   -7.467461|    0.824018|    0.012103|
|         657|   -5.505714|   -7.471631|    0.824019|    0.012102|
|         658|   -5.510135|   -7.475951|    0.824021|    0.012102|
|         659|   -5.514706|   -7.480414|    0.824022|    0.012102|
|         660|   -5.519408|   -7.485016|    0.824023|    0.012102|
|         661|   -5.524221|   -7.489747|    0.824025|    0.012103|
|         662|   -5.529127|   -7.494598|    0.824026|    0.012103|
|         663|   -5.534105|   -7.499557|    0.824028|    0.012103|
|         664|   -5.539135|   -7.504611|    0.824029|    0.012103|
|         665|   -5.544197|   -7.509747|    0.824030|    0.012103|
|         666|   -5.549270|   -7.514950|    0.824032|    0.012104|
|         667|   -5.554335|   -7.520206|    0.824033|    0.012104|
|         668|   -5.559372|   -7.525502|    0.824034|    0.012105|
|         669|   -5.564361|   -7.530827|    0.824036|    0.012105|
|         670|   -5.569283|   -7.536172|    0.824037|    0.012106|
|         671|   -5.574120|   -7.541530|    0.824038|    0.012106|
|         672|   -5.578853|   -7.546898|    0.824039|    0.012107|
|         673|   -5.583466|   -7.552275|    0.824040|    0.012107|
|         674|   -5.587940|   -7.557661|    0.824041|    0.012108|
|         675|   -5.592260|   -7.563062|    0.824042|    0.012109|
|         676|   -5.596411|   -7.568482|    0.824042|    0.012110|
|         677|   -5.600379|   -7.573929|    0.824043|    0.012110|
|         678|   -5.604151|   -7.579408|    0.824044|    0.012111|
|         679|   -5.607717|   -7.584928|    0.824044|    0.012112|
|         680|   -5.611068|   -7.590497|    0.824044|    0.012113|
|         681|   -5.614198|   -7.596118|    0.824045|    0.012113|
|         682|   -5.617102|   -7.601796|    0.824045|    0.012114|
|         683|   -5.619781|   -7.607531|    0.824045|    0.012115|
|         684|   -5.622237|   -7.613319|    0.824045|    0.012116|
|         685|   -5.624475|   -7.619155|    0.824045|    0.012117|
|         686|   -5.626505|   -7.625028|    0.824045|    0.012117|
|         687|   -5.628340|   -7.630926|    0.824045|    0.012118|
|         688|   -5.629995|   -7.636832|    0.824045|    0.012119|
|         689|   -5.631490|   -7.642728|    0.824045|    0.012120|
|         690|   -5.632847|   -7.648590|    0.824044|    0.012121|
|         691|   -5.634091|   -7.654398|    0.824044|    0.012122|
|         692|   -5.635250|   -7.660127|    0.824043|    0.012122|
|         693|   -5.636351|   -7.665755|    0.824043|    0.012123|
|         694|   -5.637424|   -7.671259|    0.824043|    0.012124|
|         695|   -5.638499|   -7.676620|    0.824042|    0.012125|
|         696|   -5.639605|   -7.681823|    0.824041|    0.012125|
|         697|   -5.640770|   -7.686855|    0.824041|    0.012126|
|         698|   -5.642022|   -7.691708|    0.824040|    0.012127|
|         699|   -5.643385|   -7.696378|    0.824040|    0.012127|
|         700|   -5.644880|   -7.700866|    0.824039|    0.012128|
|         701|   -5.646527|   -7.705178|    0.824038|    0.012126|
+-----------------------------------------------------------------------+
|Fixed CL Mode                           |Value                         |
+-----------------------------------------------------------------------+
|Current CL                              |0.824038                      |
|Target CL                               |0.824                         |
|Previous AOA                            |2.78491                       |
|Changed AoA by                          |-0.00019468                   |
+-----------------------------------------------------------------------+
+----------------------------------------------------------------+
|  Inner_Iter|    rms[Rho]|     rms[nu]|          CL|          CD|
+----------------------------------------------------------------+
|         702|   -3.904182|   -7.660505|    0.824038|    0.012126|
|         703|   -4.289656|   -7.687691|    0.824037|    0.012127|
|         704|   -4.535638|   -7.698404|    0.824036|    0.012127|
|         705|   -4.614389|   -7.705811|    0.824035|    0.012128|
|         706|   -4.667129|   -7.712088|    0.824035|    0.012128|
|         707|   -4.735807|   -7.717721|    0.824034|    0.012129|
|         708|   -4.820849|   -7.722837|    0.824033|    0.012129|
|         709|   -4.909324|   -7.727505|    0.824032|    0.012129|
|         710|   -4.984725|   -7.731776|    0.824031|    0.012130|
|         711|   -5.038980|   -7.735677|    0.824031|    0.012130|
|         712|   -5.074091|   -7.739258|    0.824030|    0.012130|
|         713|   -5.094184|   -7.742624|    0.824029|    0.012130|
|         714|   -5.103203|   -7.745911|    0.824028|    0.012131|
|         715|   -5.106795|   -7.749229|    0.824027|    0.012131|
|         716|   -5.111209|   -7.752629|    0.824026|    0.012131|
|         717|   -5.120596|   -7.756128|    0.824026|    0.012131|
|         718|   -5.135869|   -7.759733|    0.824025|    0.012131|
|         719|   -5.155238|   -7.763462|    0.824024|    0.012131|
|         720|   -5.175664|   -7.767335|    0.824023|    0.012131|
|         721|   -5.194616|   -7.771367|    0.824022|    0.012131|
|         722|   -5.211289|   -7.775551|    0.824021|    0.012131|
|         723|   -5.226496|   -7.779863|    0.824021|    0.012130|
|         724|   -5.241558|   -7.784272|    0.824020|    0.012130|
|         725|   -5.257282|   -7.788744|    0.824019|    0.012130|
|         726|   -5.273617|   -7.793251|    0.824018|    0.012130|
|         727|   -5.289890|   -7.797774|    0.824017|    0.012129|
|         728|   -5.305211|   -7.802295|    0.824017|    0.012129|
|         729|   -5.318786|   -7.806812|    0.824016|    0.012129|
|         730|   -5.330090|   -7.811326|    0.824015|    0.012128|
|         731|   -5.338964|   -7.815837|    0.824014|    0.012128|
|         732|   -5.345676|   -7.820348|    0.824014|    0.012128|
|         733|   -5.350900|   -7.824868|    0.824013|    0.012127|
|         734|   -5.355570|   -7.829392|    0.824012|    0.012127|
|         735|   -5.360653|   -7.833924|    0.824011|    0.012126|
|         736|   -5.366934|   -7.838458|    0.824011|    0.012126|
|         737|   -5.374884|   -7.842992|    0.824010|    0.012125|
|         738|   -5.384608|   -7.847518|    0.824009|    0.012125|
|         739|   -5.395849|   -7.852030|    0.824009|    0.012124|
|         740|   -5.408037|   -7.856519|    0.824008|    0.012124|
|         741|   -5.420375|   -7.860957|    0.824007|    0.012123|
|         742|   -5.431993|   -7.865351|    0.824007|    0.012123|
|         743|   -5.442155|   -7.869707|    0.824006|    0.012122|
|         744|   -5.450461|   -7.874029|    0.824006|    0.012122|
|         745|   -5.456961|   -7.878319|    0.824005|    0.012121|
|         746|   -5.462113|   -7.882579|    0.824004|    0.012120|
|         747|   -5.466612|   -7.886793|    0.824004|    0.012120|
|         748|   -5.471175|   -7.890946|    0.824003|    0.012119|
|         749|   -5.476356|   -7.895036|    0.824002|    0.012119|
|         750|   -5.482456|   -7.899055|    0.824002|    0.012118|
|         751|   -5.489499|   -7.902983|    0.824001|    0.012118|
|         752|   -5.497274|   -7.906802|    0.824000|    0.012117|
|         753|   -5.505418|   -7.910510|    0.824000|    0.012117|
|         754|   -5.513506|   -7.914091|    0.823999|    0.012116|
|         755|   -5.521145|   -7.917533|    0.823998|    0.012116|
|         756|   -5.528055|   -7.920831|    0.823997|    0.012115|
|         757|   -5.534096|   -7.923983|    0.823996|    0.012115|
|         758|   -5.539275|   -7.926989|    0.823995|    0.012114|
|         759|   -5.543701|   -7.929860|    0.823994|    0.012114|
|         760|   -5.547539|   -7.932613|    0.823993|    0.012113|
|         761|   -5.550952|   -7.935277|    0.823992|    0.012113|
|         762|   -5.554070|   -7.937886|    0.823991|    0.012113|
|         763|   -5.556974|   -7.940480|    0.823990|    0.012112|
|         764|   -5.559696|   -7.943115|    0.823989|    0.012112|
|         765|   -5.562233|   -7.945852|    0.823988|    0.012112|
|         766|   -5.564564|   -7.948751|    0.823987|    0.012111|
|         767|   -5.566666|   -7.951873|    0.823986|    0.012111|
|         768|   -5.568522|   -7.955273|    0.823985|    0.012111|
|         769|   -5.570130|   -7.959005|    0.823983|    0.012111|
|         770|   -5.571496|   -7.963118|    0.823982|    0.012110|
|         771|   -5.572637|   -7.967651|    0.823981|    0.012110|
|         772|   -5.573573|   -7.972631|    0.823980|    0.012110|
|         773|   -5.574325|   -7.978071|    0.823979|    0.012110|
|         774|   -5.574909|   -7.983968|    0.823979|    0.012110|
|         775|   -5.575341|   -7.990304|    0.823978|    0.012110|
|         776|   -5.575634|   -7.997055|    0.823977|    0.012110|
|         777|   -5.575801|   -8.004178|    0.823976|    0.012110|
|         778|   -5.575854|   -8.011614|    0.823976|    0.012110|
|         779|   -5.575807|   -8.019286|    0.823976|    0.012110|
|         780|   -5.575676|   -8.027107|    0.823975|    0.012110|
|         781|   -5.575476|   -8.034979|    0.823975|    0.012111|
|         782|   -5.575226|   -8.042798|    0.823975|    0.012111|
|         783|   -5.574945|   -8.050460|    0.823975|    0.012111|
|         784|   -5.574652|   -8.057867|    0.823975|    0.012111|
|         785|   -5.574365|   -8.064933|    0.823975|    0.012112|
|         786|   -5.574103|   -8.071590|    0.823975|    0.012112|
|         787|   -5.573883|   -8.077787|    0.823976|    0.012112|
|         788|   -5.573722|   -8.083483|    0.823976|    0.012113|
|         789|   -5.573636|   -8.088685|    0.823977|    0.012113|
|         790|   -5.573640|   -8.093419|    0.823977|    0.012113|
|         791|   -5.573747|   -8.097730|    0.823978|    0.012114|
|         792|   -5.573969|   -8.101675|    0.823979|    0.012114|
|         793|   -5.574316|   -8.105318|    0.823980|    0.012115|
|         794|   -5.574797|   -8.108732|    0.823981|    0.012115|
|         795|   -5.575416|   -8.111982|    0.823982|    0.012116|
|         796|   -5.576178|   -8.115127|    0.823983|    0.012116|
|         797|   -5.577083|   -8.118207|    0.823984|    0.012117|
|         798|   -5.578130|   -8.121245|    0.823985|    0.012117|
|         799|   -5.579312|   -8.124246|    0.823986|    0.012118|
|         800|   -5.580624|   -8.127194|    0.823987|    0.012118|
|         801|   -5.582055|   -8.130051|    0.823988|    0.012120|
+-----------------------------------------------------------------------+
|Fixed CL Mode                           |Value                         |
+-----------------------------------------------------------------------+
|Current CL                              |0.823988                      |
|Target CL                               |0.824                         |
|Previous AOA                            |2.78472                       |
|Changed AoA by                          |6.55746e-05                   |
+-----------------------------------------------------------------------+
+----------------------------------------------------------------+
|  Inner_Iter|    rms[Rho]|     rms[nu]|          CL|          CD|
+----------------------------------------------------------------+
|         802|   -4.375730|   -8.091508|    0.823989|    0.012120|
|         803|   -4.756607|   -8.113701|    0.823990|    0.012121|
|         804|   -4.992747|   -8.122032|    0.823991|    0.012121|
|         805|   -5.067019|   -8.127148|    0.823992|    0.012122|
|         806|   -5.116299|   -8.130732|    0.823993|    0.012122|
|         807|   -5.178130|   -8.133207|    0.823994|    0.012123|
|         808|   -5.250691|   -8.134702|    0.823995|    0.012123|
|         809|   -5.320452|   -8.135304|    0.823996|    0.012124|
|         810|   -5.374085|   -8.135062|    0.823997|    0.012124|
|         811|   -5.408615|   -8.133998|    0.823998|    0.012125|
|         812|   -5.428799|   -8.132149|    0.823998|    0.012125|
|         813|   -5.439391|   -8.129603|    0.823999|    0.012126|
|         814|   -5.443744|   -8.126489|    0.824000|    0.012126|
|         815|   -5.445326|   -8.122953|    0.824000|    0.012126|
|         816|   -5.447527|   -8.119131|    0.824001|    0.012127|
|         817|   -5.452431|   -8.115115|    0.824001|    0.012127|
|         818|   -5.460238|   -8.111004|    0.824001|    0.012127|
|         819|   -5.469679|   -8.106922|    0.824002|    0.012128|
|         820|   -5.479000|   -8.102996|    0.824002|    0.012128|
|         821|   -5.486964|   -8.099351|    0.824002|    0.012128|
|         822|   -5.493307|   -8.096096|    0.824002|    0.012129|
|         823|   -5.498492|   -8.093319|    0.824002|    0.012129|
|         824|   -5.503136|   -8.091091|    0.824002|    0.012129|
|         825|   -5.507586|   -8.089471|    0.824002|    0.012129|
|         826|   -5.511848|   -8.088504|    0.824002|    0.012129|
|         827|   -5.515727|   -8.088226|    0.824001|    0.012130|
|         828|   -5.519004|   -8.088661|    0.824001|    0.012130|
|         829|   -5.521522|   -8.089819|    0.824001|    0.012130|
|         830|   -5.523219|   -8.091701|    0.824000|    0.012130|
|         831|   -5.524122|   -8.094292|    0.824000|    0.012130|
|         832|   -5.524352|   -8.097569|    0.823999|    0.012130|
|         833|   -5.524110|   -8.101493|    0.823999|    0.012130|
|         834|   -5.523647|   -8.106015|    0.823998|    0.012130|
|         835|   -5.523214|   -8.111069|    0.823998|    0.012130|
|         836|   -5.523011|   -8.116576|    0.823997|    0.012130|
|         837|   -5.523158|   -8.122442|    0.823996|    0.012130|
|         838|   -5.523682|   -8.128558|    0.823996|    0.012130|
|         839|   -5.524534|   -8.134808|    0.823995|    0.012130|
|         840|   -5.525606|   -8.141054|    0.823994|    0.012130|
|         841|   -5.526768|   -8.147156|    0.823993|    0.012129|
|         842|   -5.527898|   -8.152966|    0.823993|    0.012129|
|         843|   -5.528919|   -8.158335|    0.823992|    0.012129|
|         844|   -5.529817|   -8.163124|    0.823992|    0.012129|
|         845|   -5.530643|   -8.167214|    0.823991|    0.012129|
|         846|   -5.531499|   -8.170509|    0.823990|    0.012128|
|         847|   -5.532511|   -8.172948|    0.823990|    0.012128|
|         848|   -5.533797|   -8.174503|    0.823989|    0.012128|
|         849|   -5.535444|   -8.175184|    0.823989|    0.012128|
|         850|   -5.537498|   -8.175041|    0.823989|    0.012127|
|         851|   -5.539961|   -8.174155|    0.823988|    0.012127|
|         852|   -5.542800|   -8.172637|    0.823988|    0.012127|
|         853|   -5.545963|   -8.170621|    0.823988|    0.012127|
|         854|   -5.549393|   -8.168251|    0.823988|    0.012126|
|         855|   -5.553039|   -8.165679|    0.823988|    0.012126|
|         856|   -5.556866|   -8.163055|    0.823988|    0.012126|
|         857|   -5.560853|   -8.160523|    0.823988|    0.012126|
|         858|   -5.564995|   -8.158215|    0.823989|    0.012125|
|         859|   -5.569296|   -8.156249|    0.823989|    0.012125|
|         860|   -5.573761|   -8.154725|    0.823989|    0.012125|
|         861|   -5.578392|   -8.153725|    0.823990|    0.012125|
|         862|   -5.583182|   -8.153313|    0.823990|    0.012124|
|         863|   -5.588115|   -8.153536|    0.823991|    0.012124|
|         864|   -5.593165|   -8.154419|    0.823992|    0.012124|
|         865|   -5.598298|   -8.155973|    0.823992|    0.012124|
|         866|   -5.603473|   -8.158188|    0.823993|    0.012123|
|         867|   -5.608645|   -8.161037|    0.823994|    0.012123|
|         868|   -5.613768|   -8.164473|    0.823995|    0.012123|
|         869|   -5.618794|   -8.168433|    0.823996|    0.012123|
|         870|   -5.623673|   -8.172836|    0.823996|    0.012122|
|         871|   -5.628358|   -8.177585|    0.823997|    0.012122|
|         872|   -5.632799|   -8.182568|    0.823998|    0.012122|
|         873|   -5.636949|   -8.187661|    0.823999|    0.012122|
|         874|   -5.640764|   -8.192730|    0.824000|    0.012122|
|         875|   -5.644200|   -8.197639|    0.824001|    0.012122|
|         876|   -5.647221|   -8.202254|    0.824002|    0.012121|
|         877|   -5.649793|   -8.206448|    0.824003|    0.012121|
|         878|   -5.651893|   -8.210113|    0.824004|    0.012121|
|         879|   -5.653502|   -8.213162|    0.824005|    0.012121|
|         880|   -5.654614|   -8.215536|    0.824005|    0.012121|
|         881|   -5.655229|   -8.217205|    0.824006|    0.012121|
|         882|   -5.655357|   -8.218176|    0.824007|    0.012121|
|         883|   -5.655019|   -8.218484|    0.824008|    0.012121|
|         884|   -5.654240|   -8.218193|    0.824008|    0.012121|
|         885|   -5.653056|   -8.217389|    0.824009|    0.012120|
|         886|   -5.651506|   -8.216170|    0.824010|    0.012120|
|         887|   -5.649636|   -8.214644|    0.824010|    0.012120|
|         888|   -5.647493|   -8.212920|    0.824011|    0.012120|
|         889|   -5.645128|   -8.211099|    0.824011|    0.012120|
|         890|   -5.642593|   -8.209275|    0.824012|    0.012120|
|         891|   -5.639938|   -8.207528|    0.824012|    0.012120|
|         892|   -5.637212|   -8.205919|    0.824012|    0.012120|
|         893|   -5.634464|   -8.204497|    0.824013|    0.012120|
|         894|   -5.631739|   -8.203291|    0.824013|    0.012120|
|         895|   -5.629078|   -8.202315|    0.824013|    0.012120|
|         896|   -5.626519|   -8.201568|    0.824014|    0.012120|
|         897|   -5.624099|   -8.201036|    0.824014|    0.012120|
|         898|   -5.621849|   -8.200694|    0.824014|    0.012120|
|         899|   -5.619797|   -8.200506|    0.824014|    0.012121|
|         900|   -5.617967|   -8.200432|    0.824015|    0.012121|
|         901|   -5.616383|   -8.200425|    0.824015|    0.012120|
+-----------------------------------------------------------------------+
|Fixed CL Mode                           |Value                         |
+-----------------------------------------------------------------------+
|Current CL                              |0.824015                      |
|Target CL                               |0.824                         |
|Previous AOA                            |2.78478                       |
[...]
|        5298|   -6.045479|   -7.922293|    0.824239|    0.012127|
|        5299|   -6.052194|   -7.926735|    0.824239|    0.012127|
|        5300|   -6.058553|   -7.931197|    0.824239|    0.012127|
|        5301|   -6.064519|   -7.935696|    0.824239|    0.012127|
|        5302|   -6.070061|   -7.940244|    0.824240|    0.012127|
|        5303|   -6.075161|   -7.944851|    0.824240|    0.012127|
|        5304|   -6.079811|   -7.949524|    0.824240|    0.012127|
|        5305|   -6.084013|   -7.954268|    0.824240|    0.012127|
|        5306|   -6.087782|   -7.959086|    0.824240|    0.012127|
|        5307|   -6.091142|   -7.963980|    0.824240|    0.012127|
|        5308|   -6.094125|   -7.968953|    0.824240|    0.012127|
|        5309|   -6.096772|   -7.974009|    0.824240|    0.012127|
|        5310|   -6.099130|   -7.979150|    0.824240|    0.012127|
|        5311|   -6.101247|   -7.984381|    0.824240|    0.012127|
|        5312|   -6.103176|   -7.989707|    0.824240|    0.012127|
|        5313|   -6.104972|   -7.995133|    0.824241|    0.012127|
|        5314|   -6.106687|   -8.000668|    0.824241|    0.012127|
|        5315|   -6.108370|   -8.006316|    0.824241|    0.012127|
|        5316|   -6.110071|   -8.012084|    0.824241|    0.012127|
|        5317|   -6.111831|   -8.017981|    0.824241|    0.012127|
|        5318|   -6.113690|   -8.024013|    0.824241|    0.012127|
|        5319|   -6.115681|   -8.030187|    0.824241|    0.012127|
|        5320|   -6.117829|   -8.036509|    0.824241|    0.012127|
|        5321|   -6.120157|   -8.042985|    0.824242|    0.012127|
|        5322|   -6.122678|   -8.049620|    0.824242|    0.012127|
|        5323|   -6.125397|   -8.056415|    0.824242|    0.012127|
|        5324|   -6.128318|   -8.063373|    0.824242|    0.012127|
|        5325|   -6.131438|   -8.070493|    0.824242|    0.012127|
|        5326|   -6.134743|   -8.077774|    0.824242|    0.012127|
|        5327|   -6.138215|   -8.085212|    0.824242|    0.012128|
|        5328|   -6.141832|   -8.092801|    0.824242|    0.012128|
|        5329|   -6.145565|   -8.100535|    0.824243|    0.012128|
|        5330|   -6.149381|   -8.108403|    0.824243|    0.012128|
|        5331|   -6.153248|   -8.116395|    0.824243|    0.012128|
|        5332|   -6.157122|   -8.124498|    0.824243|    0.012128|
|        5333|   -6.160964|   -8.132697|    0.824243|    0.012128|
|        5334|   -6.164731|   -8.140977|    0.824243|    0.012128|
|        5335|   -6.168384|   -8.149323|    0.824243|    0.012128|
|        5336|   -6.171884|   -8.157717|    0.824243|    0.012128|
|        5337|   -6.175198|   -8.166143|    0.824244|    0.012128|
|        5338|   -6.178296|   -8.174584|    0.824244|    0.012128|
|        5339|   -6.181157|   -8.183025|    0.824244|    0.012129|
|        5340|   -6.183766|   -8.191450|    0.824244|    0.012129|
|        5341|   -6.186115|   -8.199847|    0.824244|    0.012129|
|        5342|   -6.188206|   -8.208203|    0.824244|    0.012129|
|        5343|   -6.190050|   -8.216507|    0.824244|    0.012129|
|        5344|   -6.191663|   -8.224750|    0.824244|    0.012129|
|        5345|   -6.193071|   -8.232924|    0.824244|    0.012129|
|        5346|   -6.194306|   -8.241023|    0.824244|    0.012129|
|        5347|   -6.195406|   -8.249042|    0.824244|    0.012129|
|        5348|   -6.196408|   -8.256978|    0.824244|    0.012129|
|        5349|   -6.197356|   -8.264830|    0.824244|    0.012129|
|        5350|   -6.198295|   -8.272597|    0.824244|    0.012129|
|        5351|   -6.199268|   -8.280278|    0.824244|    0.012129|
|        5352|   -6.200319|   -8.287872|    0.824244|    0.012129|
|        5353|   -6.201490|   -8.295379|    0.824244|    0.012129|
|        5354|   -6.202819|   -8.302799|    0.824244|    0.012129|
|        5355|   -6.204344|   -8.310133|    0.824244|    0.012129|
|        5356|   -6.206096|   -8.317381|    0.824244|    0.012129|
|        5357|   -6.208103|   -8.324545|    0.824244|    0.012129|
|        5358|   -6.210388|   -8.331626|    0.824244|    0.012129|
|        5359|   -6.212971|   -8.338624|    0.824244|    0.012129|
|        5360|   -6.215865|   -8.345540|    0.824244|    0.012129|
|        5361|   -6.219080|   -8.352374|    0.824244|    0.012129|
|        5362|   -6.222618|   -8.359125|    0.824244|    0.012129|
|        5363|   -6.226480|   -8.365791|    0.824244|    0.012129|
|        5364|   -6.230659|   -8.372368|    0.824244|    0.012129|
|        5365|   -6.235143|   -8.378856|    0.824244|    0.012129|
|        5366|   -6.239917|   -8.385249|    0.824244|    0.012129|
|        5367|   -6.244960|   -8.391546|    0.824244|    0.012129|
|        5368|   -6.250244|   -8.397742|    0.824244|    0.012129|
|        5369|   -6.255741|   -8.403835|    0.824244|    0.012129|
|        5370|   -6.261414|   -8.409823|    0.824244|    0.012129|
|        5371|   -6.267225|   -8.415704|    0.824244|    0.012129|
|        5372|   -6.273131|   -8.421478|    0.824243|    0.012129|
|        5373|   -6.279087|   -8.427145|    0.824243|    0.012129|
|        5374|   -6.285044|   -8.432707|    0.824243|    0.012129|
|        5375|   -6.290953|   -8.438166|    0.824243|    0.012129|
|        5376|   -6.296764|   -8.443528|    0.824243|    0.012129|
|        5377|   -6.302428|   -8.448796|    0.824243|    0.012129|
|        5378|   -6.307896|   -8.453978|    0.824243|    0.012129|
|        5379|   -6.313125|   -8.459082|    0.824243|    0.012129|
|        5380|   -6.318073|   -8.464116|    0.824243|    0.012129|
|        5381|   -6.322706|   -8.469090|    0.824243|    0.012128|
|        5382|   -6.326993|   -8.474012|    0.824243|    0.012128|
|        5383|   -6.330914|   -8.478894|    0.824243|    0.012128|
|        5384|   -6.334453|   -8.483745|    0.824243|    0.012128|
|        5385|   -6.337602|   -8.488574|    0.824243|    0.012128|
|        5386|   -6.340362|   -8.493389|    0.824243|    0.012128|
|        5387|   -6.342739|   -8.498198|    0.824242|    0.012128|
|        5388|   -6.344746|   -8.503004|    0.824242|    0.012128|
|        5389|   -6.346401|   -8.507811|    0.824242|    0.012128|
|        5390|   -6.347727|   -8.512618|    0.824242|    0.012128|
|        5391|   -6.348749|   -8.517421|    0.824243|    0.012128|
|        5392|   -6.349494|   -8.522214|    0.824243|    0.012127|
|        5393|   -6.349991|   -8.526986|    0.824243|    0.012127|
|        5394|   -6.350267|   -8.531724|    0.824243|    0.012127|
|        5395|   -6.350350|   -8.536412|    0.824243|    0.012127|
|        5396|   -6.350265|   -8.541030|    0.824243|    0.012127|
|        5397|   -6.350035|   -8.545556|    0.824243|    0.012127|
|        5398|   -6.349682|   -8.549966|    0.824243|    0.012127|
|        5399|   -6.349224|   -8.554234|    0.824243|    0.012127|
|        5400|   -6.348677|   -8.558335|    0.824243|    0.012127|
|        5401|   -6.348055|   -8.562243|    0.824243|    0.012127|
|        5402|   -6.347369|   -8.565935|    0.824243|    0.012126|
|        5403|   -6.346627|   -8.569388|    0.824243|    0.012126|
|        5404|   -6.345837|   -8.572583|    0.824243|    0.012126|
|        5405|   -6.345005|   -8.575507|    0.824244|    0.012126|
|        5406|   -6.344135|   -8.578147|    0.824244|    0.012126|
|        5407|   -6.343230|   -8.580499|    0.824244|    0.012126|
|        5408|   -6.342294|   -8.582561|    0.824244|    0.012126|
|        5409|   -6.341329|   -8.584338|    0.824244|    0.012126|
|        5410|   -6.340337|   -8.585838|    0.824244|    0.012126|
|        5411|   -6.339322|   -8.587075|    0.824244|    0.012126|
|        5412|   -6.338285|   -8.588066|    0.824244|    0.012126|
|        5413|   -6.337230|   -8.588830|    0.824244|    0.012125|
|        5414|   -6.336160|   -8.589390|    0.824244|    0.012125|
|        5415|   -6.335080|   -8.589767|    0.824245|    0.012125|
|        5416|   -6.333994|   -8.589987|    0.824245|    0.012125|
|        5417|   -6.332907|   -8.590071|    0.824245|    0.012125|
|        5418|   -6.331827|   -8.590042|    0.824245|    0.012125|
|        5419|   -6.330758|   -8.589921|    0.824245|    0.012125|
|        5420|   -6.329710|   -8.589724|    0.824245|    0.012125|
|        5421|   -6.328690|   -8.589468|    0.824245|    0.012125|
|        5422|   -6.327707|   -8.589168|    0.824245|    0.012125|
|        5423|   -6.326772|   -8.588838|    0.824245|    0.012125|
|        5424|   -6.325894|   -8.588486|    0.824245|    0.012125|
|        5425|   -6.325086|   -8.588124|    0.824245|    0.012125|
|        5426|   -6.324360|   -8.587756|    0.824245|    0.012125|
|        5427|   -6.323728|   -8.587389|    0.824245|    0.012125|
|        5428|   -6.323203|   -8.587027|    0.824245|    0.012125|
|        5429|   -6.322801|   -8.586673|    0.824245|    0.012125|
|        5430|   -6.322534|   -8.586333|    0.824245|    0.012125|
|        5431|   -6.322418|   -8.586009|    0.824245|    0.012125|
|        5432|   -6.322468|   -8.585706|    0.824245|    0.012125|
|        5433|   -6.322698|   -8.585430|    0.824245|    0.012125|
|        5434|   -6.323124|   -8.585186|    0.824245|    0.012125|
|        5435|   -6.323758|   -8.584982|    0.824245|    0.012125|
|        5436|   -6.324616|   -8.584825|    0.824245|    0.012125|
|        5437|   -6.325709|   -8.584726|    0.824245|    0.012125|
|        5438|   -6.327049|   -8.584693|    0.824245|    0.012125|
|        5439|   -6.328646|   -8.584737|    0.824245|    0.012125|
|        5440|   -6.330510|   -8.584869|    0.824245|    0.012125|
|        5441|   -6.332647|   -8.585099|    0.824245|    0.012125|
|        5442|   -6.335062|   -8.585437|    0.824245|    0.012125|
|        5443|   -6.337758|   -8.585894|    0.824245|    0.012125|
|        5444|   -6.340733|   -8.586480|    0.824245|    0.012125|
|        5445|   -6.343987|   -8.587203|    0.824245|    0.012125|
|        5446|   -6.347513|   -8.588072|    0.824245|    0.012125|
|        5447|   -6.351301|   -8.589092|    0.824244|    0.012125|
|        5448|   -6.355340|   -8.590272|    0.824244|    0.012125|
|        5449|   -6.359613|   -8.591614|    0.824244|    0.012125|
|        5450|   -6.364101|   -8.593123|    0.824244|    0.012126|
|        5451|   -6.368780|   -8.594800|    0.824244|    0.012126|
|        5452|   -6.373622|   -8.596647|    0.824244|    0.012126|
|        5453|   -6.378597|   -8.598663|    0.824244|    0.012126|
|        5454|   -6.383669|   -8.600846|    0.824244|    0.012126|
|        5455|   -6.388799|   -8.603195|    0.824243|    0.012126|
|        5456|   -6.393947|   -8.605704|    0.824243|    0.012126|
|        5457|   -6.399067|   -8.608371|    0.824243|    0.012126|
|        5458|   -6.404114|   -8.611189|    0.824243|    0.012126|
|        5459|   -6.409039|   -8.614153|    0.824243|    0.012126|
|        5460|   -6.413795|   -8.617256|    0.824243|    0.012126|
|        5461|   -6.418334|   -8.620491|    0.824242|    0.012126|
|        5462|   -6.422611|   -8.623851|    0.824242|    0.012126|
|        5463|   -6.426583|   -8.627328|    0.824242|    0.012126|
|        5464|   -6.430210|   -8.630913|    0.824242|    0.012127|
|        5465|   -6.433461|   -8.634600|    0.824242|    0.012127|
|        5466|   -6.436307|   -8.638378|    0.824241|    0.012127|
|        5467|   -6.438729|   -8.642239|    0.824241|    0.012127|
|        5468|   -6.440714|   -8.646174|    0.824241|    0.012127|
|        5469|   -6.442260|   -8.650175|    0.824241|    0.012127|
|        5470|   -6.443369|   -8.654231|    0.824241|    0.012127|
|        5471|   -6.444054|   -8.658333|    0.824240|    0.012127|
|        5472|   -6.444333|   -8.662472|    0.824240|    0.012127|
|        5473|   -6.444234|   -8.666636|    0.824240|    0.012127|
|        5474|   -6.443788|   -8.670816|    0.824240|    0.012127|
|        5475|   -6.443030|   -8.675001|    0.824239|    0.012127|
|        5476|   -6.442000|   -8.679180|    0.824239|    0.012127|
|        5477|   -6.440740|   -8.683342|    0.824239|    0.012127|
|        5478|   -6.439294|   -8.687475|    0.824239|    0.012127|
|        5479|   -6.437703|   -8.691569|    0.824238|    0.012127|
|        5480|   -6.436012|   -8.695612|    0.824238|    0.012127|
|        5481|   -6.434261|   -8.699594|    0.824238|    0.012127|
|        5482|   -6.432489|   -8.703503|    0.824238|    0.012127|
|        5483|   -6.430734|   -8.707330|    0.824237|    0.012127|
|        5484|   -6.429031|   -8.711064|    0.824237|    0.012127|
|        5485|   -6.427410|   -8.714698|    0.824237|    0.012127|
|        5486|   -6.425900|   -8.718224|    0.824237|    0.012127|
|        5487|   -6.424527|   -8.721635|    0.824236|    0.012127|
|        5488|   -6.423313|   -8.724927|    0.824236|    0.012127|
|        5489|   -6.422277|   -8.728096|    0.824236|    0.012127|
|        5490|   -6.421436|   -8.731139|    0.824236|    0.012127|
|        5491|   -6.420804|   -8.734057|    0.824236|    0.012127|
|        5492|   -6.420393|   -8.736852|    0.824235|    0.012127|
|        5493|   -6.420211|   -8.739525|    0.824235|    0.012127|
|        5494|   -6.420266|   -8.742082|    0.824235|    0.012127|
|        5495|   -6.420563|   -8.744528|    0.824235|    0.012127|
|        5496|   -6.421104|   -8.746870|    0.824235|    0.012127|
|        5497|   -6.421891|   -8.749117|    0.824234|    0.012127|
|        5498|   -6.422924|   -8.751277|    0.824234|    0.012127|
|        5499|   -6.424201|   -8.753360|    0.824234|    0.012113|
+-----------------------------------------------------------------------+
|Fixed CL Mode (Finite Difference)       |Value                         |
+-----------------------------------------------------------------------+
|Delta CL / Delta AoA                    |0.234265                      |
|Delta CD / Delta CL                     |0.0193608                     |
|Delta CMz / Delta CL                    |0.00352227                    |
+-----------------------------------------------------------------------+
Writing Flow Meta-Data file: flow.meta

----------------------------- Solver Exit -------------------------------

Maximum number of iterations reached (ITER = 5500) before convergence.
+-----------------------------------------------------------------------+
|      Convergence Field     |     Value    |   Criterion  |  Converged |
+-----------------------------------------------------------------------+
|                    rms[Rho]|       -6.4242|         < -12|          No|
+-----------------------------------------------------------------------+
-------------------------------------------------------------------------

--------------------------- Finalizing Solver ---------------------------
Deleted CNumerics container.
Deleted CIntegration container.
Deleted CSolver container.
Deleted CIteration container.
Deleted CInterface container.
Deleted CGeometry container.
Deleted CFreeFormDefBox class.
Deleted CSurfaceMovement class.
Deleted CVolumetricMovement class.
Deleted CConfig container.
Deleted nInst container.
Deleted COutput class.
-------------------------------------------------------------------------

------------------------- Exit Success (SU2_CFD) ------------------------


-------------------------------------------------------------------------
|    ___ _   _ ___                                                      |
|   / __| | | |_  )   Release 8.0.0 "Harrier"                           |
|   \__ \ |_| |/ /                                                      |
|   |___/\___//___|   Suite (Solution Exporting Code)                   |
|                                                                       |
-------------------------------------------------------------------------
| SU2 Project Website: https://su2code.github.io                        |
|                                                                       |
| The SU2 Project is maintained by the SU2 Foundation                   |
| (http://su2foundation.org)                                            |
-------------------------------------------------------------------------
| Copyright 2012-2023, SU2 Contributors                                 |
|                                                                       |
| SU2 is free software; you can redistribute it and/or                  |
| modify it under the terms of the GNU Lesser General Public            |
| License as published by the Free Software Foundation; either          |
| version 2.1 of the License, or (at your option) any later version.    |
|                                                                       |
| SU2 is distributed in the hope that it will be useful,                |
| but WITHOUT ANY WARRANTY; without even the implied warranty of        |
| MERCHANTABILITY or FITNESS FOR A PARTICULAR PURPOSE. See the GNU      |
| Lesser General Public License for more details.                       |
|                                                                       |
| You should have received a copy of the GNU Lesser General Public      |
| License along with SU2. If not, see <http://www.gnu.org/licenses/>.   |
-------------------------------------------------------------------------

----------------- Physical Case Definition ( Zone 0 ) -------------------
Input mesh file name: mesh_RAE2822_turb_deform.su2

-------------------- Output Information ( Zone 0 ) ----------------------
The tabular file format is CSV (.csv).
Flow variables file name: flow.

------------- Config File Boundary Information ( Zone 0 ) ---------------
+-----------------------------------------------------------------------+
|                        Marker Type|                        Marker Name|
+-----------------------------------------------------------------------+
|                          Far-field|                           FARFIELD|
+-----------------------------------------------------------------------+
|                     Heat flux wall|                            AIRFOIL|
+-----------------------------------------------------------------------+
Two dimensional problem.
13937 grid points before partitioning.
22842 volume elements before partitioning.
2 surface markers.
192 boundary elements in index 0 (Marker = AIRFOIL).
40 boundary elements in index 1 (Marker = FARFIELD).
Executing the partitioning functions.
Building the graph adjacency structure.
Calling ParMETIS... graph partitioning complete (831 edge cuts).
Distributing ParMETIS coloring.
Rebalancing vertices.
Rebalancing volume element connectivity.
Rebalancing markers and surface elements.
14875 vertices including ghost points. 
23674 interior elements including halo cells. 
18780 triangles.
4894 quadrilaterals.
Establishing MPI communication patterns.
Identify vertices.
Storing a mapping from global to local point index.

------------------------- Solution Postprocessing -----------------------
Reading and storing the solution from restart_flow.
Volume output fields: COORDINATES, SOLUTION
  Info: Ignoring the following screen output fields:
  RMS_DENSITY, RMS_NU_TILDE, LIFT, DRAG
Screen output fields: INNER_ITER
  Info: Ignoring the following history output groups:
  RMS_RES, AERO_COEFF
History output group(s): ITER
Warning: No (valid) fields chosen for convergence monitoring. Convergence monitoring inactive.
Warning: No (valid) fields chosen for time convergence monitoring. Time convergence monitoring inactive.
|Paraview                           |flow.vtu                           |
|Paraview surface                   |surface_flow.vtu                   |
|CSV file                           |surface_flow.csv                   |

------------------------- Finalize Solver -------------------------
Deleted CGeometry container.
Deleted CSolver class.
Deleted CConfig container.
Deleted COutput class.

Completed in 0.017097 seconds on 6 cores.

------------------------- Exit Success (SU2_SOL) ------------------------

