
-------------------------------------------------------------------------
|    ___ _   _ ___                                                      |
|   / __| | | |_  )   Release 8.0.0 "Harrier"                           |
|   \__ \ |_| |/ /                                                      |
|   |___/\___//___|   Suite (Computational Fluid Dynamics Code)         |
|                                                                       |
-------------------------------------------------------------------------
| SU2 Project Website: https://su2code.github.io                        |
|                                                                       |
| The SU2 Project is maintained by the SU2 Foundation                   |
| (http://su2foundation.org)                                            |
-------------------------------------------------------------------------
| Copyright 2012-2023, SU2 Contributors                                 |
|                                                                       |
| SU2 is free software; you can redistribute it and/or                  |
| modify it under the terms of the GNU Lesser General Public            |
| License as published by the Free Software Foundation; either          |
| version 2.1 of the License, or (at your option) any later version.    |
|                                                                       |
| SU2 is distributed in the hope that it will be useful,                |
| but WITHOUT ANY WARRANTY; without even the implied warranty of        |
| MERCHANTABILITY or FITNESS FOR A PARTICULAR PURPOSE. See the GNU      |
| Lesser General Public License for more details.                       |
|                                                                       |
| You should have received a copy of the GNU Lesser General Public      |
| License along with SU2. If not, see <http://www.gnu.org/licenses/>.   |
-------------------------------------------------------------------------

Parsing config file for zone 0

----------------- Physical Case Definition ( Zone 0 ) -------------------
Compressible RANS equations.
Turbulence model: Spalart-Allmaras-noft2
Hybrid RANS/LES: No Hybrid RANS/LES
Mach number: 0.734.
Angle of attack (AoA): 2.31 deg, and angle of sideslip (AoS): 0 deg.
Reynolds number: 6.5e+06. Reference length 1.
Fixed CL mode, target value: 0.824.
Reading and writing binary SU2 native restart files.
Read flow solution from: solution_flow.dat.
Dimensional simulation.
The reference area is 1 m^2.
The semi-span will be computed using the max y(3D) value.
The reference length is 1 m.
Reference origin for moment evaluation is (0.25, 0, 0).
Surface(s) where the force coefficients are evaluated: AIRFOIL.

Surface(s) plotted in the output file: AIRFOIL.
Surface(s) affected by the design variables: AIRFOIL.
Input mesh file name: mesh_RAE2822_turb_deform.su2

--------------- Space Numerical Integration ( Zone 0 ) ------------------
Jameson-Schmidt-Turkel scheme (2nd order in space) for the flow inviscid terms.
JST viscous coefficients (2nd & 4th): 0.5, 0.02.
The method includes a grid stretching correction (p = 0.3).
Scalar upwind solver for the turbulence model.
First order integration in space.
Average of gradients with correction (viscous flow terms).
Average of gradients with correction (viscous turbulence terms).
Gradient for viscous and source terms: inverse-distance weighted Least-Squares.

--------------- Time Numerical Integration  ( Zone 0 ) ------------------
Local time stepping (steady state simulation).
Euler implicit method for the flow equations.
FGMRES is used for solving the linear system.
Using a ILU(0) preconditioning.
Convergence criteria of the linear solver: 1e-06.
Max number of linear iterations: 10.
No CFL adaptation.
Courant-Friedrichs-Lewy number:       10
Euler implicit time integration for the turbulence model.

------------------ Convergence Criteria  ( Zone 0 ) ---------------------
Maximum number of solver subiterations: 5500.
Begin convergence monitoring at iteration 10.
Residual minimum value: 1e-12.
Cauchy series min. value: 1e-06.
Number of Cauchy elements: 100.
Begin windowed time average at iteration 0.

-------------------- Output Information ( Zone 0 ) ----------------------
File writing frequency: 
+------------------------------------+
|                     File| Frequency|
+------------------------------------+
|                  RESTART|     10000|
|                 PARAVIEW|     10000|
|         SURFACE_PARAVIEW|     10000|
|              SURFACE_CSV|     10000|
+------------------------------------+
Writing the convergence history file every 1 inner iterations.
Writing the screen convergence history every 1 inner iterations.
The tabular file format is CSV (.csv).
Convergence history file name: history_direct.
Forces breakdown file name: forces_breakdown.dat.
Surface file name: surface_flow.
Volume file name: flow.
Restart file name: restart_flow.dat.

------------- Config File Boundary Information ( Zone 0 ) ---------------
+-----------------------------------------------------------------------+
|                        Marker Type|                        Marker Name|
+-----------------------------------------------------------------------+
|                          Far-field|                           FARFIELD|
+-----------------------------------------------------------------------+
|                     Heat flux wall|                            AIRFOIL|
+-----------------------------------------------------------------------+

-------------------- Output Preprocessing ( Zone 0 ) --------------------

WARNING: SURFACE_PRESSURE_DROP can only be computed for at least 2 surfaces (outlet, inlet, ...)

Screen output fields: INNER_ITER, RMS_DENSITY, RMS_NU_TILDE, LIFT, DRAG
History output group(s): ITER, RMS_RES, AERO_COEFF
Convergence field(s): RMS_DENSITY
Warning: No (valid) fields chosen for time convergence monitoring. Time convergence monitoring inactive.
Volume output fields: COORDINATES, SOLUTION, PRIMITIVE

------------------- Geometry Preprocessing ( Zone 0 ) -------------------
Two dimensional problem.
13937 grid points before partitioning.
22842 volume elements before partitioning.
2 surface markers.
192 boundary elements in index 0 (Marker = AIRFOIL).
40 boundary elements in index 1 (Marker = FARFIELD).
Executing the partitioning functions.
Building the graph adjacency structure.
Calling ParMETIS... graph partitioning complete (831 edge cuts).
Distributing ParMETIS coloring.
Rebalancing vertices.
Rebalancing volume element connectivity.
Rebalancing markers and surface elements.
14875 vertices including ghost points. 
23674 interior elements including halo cells. 
18780 triangles.
4894 quadrilaterals.
Establishing MPI communication patterns.
Setting point connectivity.
Renumbering points (Reverse Cuthill McKee Ordering).
Recomputing point connectivity.
Setting element connectivity.
Checking the numerical grid orientation.
All volume elements are correctly orientend.
All surface elements are correctly orientend.
Identifying edges and vertices.
Setting the control volume structure.
Area of the computational grid: 32209.9.
Searching for the closest normal neighbors to the surfaces.
Storing a mapping from global to local point index.
Compute the surface curvature.
Max K: 200.348. Mean K: 8.2373. Standard deviation K: 26.4737.
Checking for periodicity.
Computing mesh quality statistics for the dual control volumes.
+--------------------------------------------------------------+
|           Mesh Quality Metric|        Minimum|        Maximum|
+--------------------------------------------------------------+
|    Orthogonality Angle (deg.)|        74.5781|        89.9999|
|     CV Face Area Aspect Ratio|         1.0014|        3358.86|
|           CV Sub-Volume Ratio|        1.00065|        1218.77|
+--------------------------------------------------------------+
Finding max control volume width.
Communicating number of neighbors.
Wetted area = 2.02146 m.
Area projection in the x-plane = 0.127446 m, y-plane = 0.995873 m.
Max. coordinate in the x-direction = 1 m, y-direction = 0.0616644 m.
Min. coordinate in the x-direction = 0 m, y-direction = -0.0621766 m.
Computing wall distances.

-------------------- Solver Preprocessing ( Zone 0 ) --------------------
WARNING: AoA in the solution file (2.76953 deg.) +
         AoA offset in mesh file (0 deg.) = 2.76953 deg.
WARNING: SU2 will use the dCD/dCL provided in the direct solution file: 0.0190477.
WARNING: SU2 will use the dCMz/dCL provided in the direct solution file: 0.00401479.
Viscous flow: Computing pressure using the ideal gas law
based on the free-stream temperature and a density computed
from the Reynolds number.
Force coefficients computed using free-stream values.

-- Models:
+------------------------------------------------------------------------------+
|          Viscosity Model|        Conductivity Model|              Fluid Model|
+------------------------------------------------------------------------------+
|               SUTHERLAND|          CONSTANT_PRANDTL|             STANDARD_AIR|
+------------------------------------------------------------------------------+
-- Fluid properties:
+------------------------------------------------------------------------------+
|                  Name|    Dim. value|    Ref. value|      Unit|Non-dim. value|
+------------------------------------------------------------------------------+
|        Ref. Viscosity|     1.716e-05|             1|   N.s/m^2|     1.716e-05|
|      Sutherland Temp.|        273.15|             1|         K|        273.15|
|     Sutherland Const.|         110.4|             1|         K|         110.4|
+------------------------------------------------------------------------------+
|        Prandtl (Lam.)|             -|             -|         -|          0.71|
|       Prandtl (Turb.)|             -|             -|         -|           0.9|
+------------------------------------------------------------------------------+
|          Gas Constant|       287.058|             1|  N.m/kg.K|       287.058|
|      Spec. Heat Ratio|             -|             -|         -|           1.4|
+------------------------------------------------------------------------------+
-- Initial and free-stream conditions:
+------------------------------------------------------------------------------+
|                  Name|    Dim. value|    Ref. value|      Unit|Non-dim. value|
+------------------------------------------------------------------------------+
|       Static Pressure|         38515|             1|        Pa|         38515|
|               Density|      0.465631|             1|    kg/m^3|      0.465631|
|           Temperature|        288.15|             1|         K|        288.15|
|          Total Energy|        237984|             1|   m^2/s^2|        237984|
|            Velocity-X|       249.486|             1|       m/s|       249.486|
|            Velocity-Y|       12.0689|             1|       m/s|       12.0689|
|    Velocity Magnitude|       249.778|             1|       m/s|       249.778|
+------------------------------------------------------------------------------+
|             Viscosity|    1.7893e-05|             1|   N.s/m^2|    1.7893e-05|
|          Conductivity|             -|             1|   W/m^2.K|             -|
|     Turb. Kin. Energy|       233.959|             1|   m^2/s^2|       233.959|
|     Spec. Dissipation|        608834|             1|       1/s|        608834|
+------------------------------------------------------------------------------+
|           Mach Number|             -|             -|         -|         0.734|
|       Reynolds Number|             -|             -|         -|       6.5e+06|
+------------------------------------------------------------------------------+
Initialize Jacobian structure (Navier-Stokes). MG level: 0.
Initialize Jacobian structure (SA model).

------------------- Numerics Preprocessing ( Zone 0 ) -------------------

----------------- Integration Preprocessing ( Zone 0 ) ------------------

------------------- Iteration Preprocessing ( Zone 0 ) ------------------
Euler/Navier-Stokes/RANS fluid iteration.

------------------------------ Begin Solver -----------------------------

Simulation Run using the Single-zone Driver
WARNING: SU2 was not compiled for an AVX-capable architecture. Performance could be better,
         see https://su2code.github.io/docs_v7/Build-SU2-Linux-MacOS/#compiler-optimizations
+----------------------------------------------------------------+
|  Inner_Iter|    rms[Rho]|     rms[nu]|          CL|          CD|
+----------------------------------------------------------------+
|           0|   -4.761425|   -6.119901|    0.824115|    0.012054|
|           1|   -4.820608|   -6.229378|    0.824175|    0.012085|
|           2|   -4.884466|   -6.360915|    0.824190|    0.012102|
|           3|   -4.930359|   -6.514522|    0.824179|    0.012108|
|           4|   -4.957311|   -6.682327|    0.824160|    0.012108|
|           5|   -4.970605|   -6.814412|    0.824144|    0.012107|
|           6|   -4.975261|   -6.837803|    0.824137|    0.012106|
|           7|   -4.975209|   -6.797512|    0.824137|    0.012106|
|           8|   -4.973115|   -6.760552|    0.824143|    0.012108|
|           9|   -4.970091|   -6.737822|    0.824153|    0.012112|
|          10|   -4.965977|   -6.719337|    0.824164|    0.012117|
|          11|   -4.960138|   -6.695955|    0.824178|    0.012123|
|          12|   -4.952204|   -6.667301|    0.824192|    0.012129|
|          13|   -4.942361|   -6.639303|    0.824205|    0.012135|
|          14|   -4.931231|   -6.617934|    0.824218|    0.012142|
|          15|   -4.919601|   -6.606312|    0.824229|    0.012148|
|          16|   -4.908220|   -6.604925|    0.824237|    0.012155|
|          17|   -4.897713|   -6.612535|    0.824241|    0.012161|
|          18|   -4.888587|   -6.626748|    0.824242|    0.012166|
|          19|   -4.881251|   -6.644238|    0.824238|    0.012171|
|          20|   -4.876011|   -6.661059|    0.824230|    0.012176|
|          21|   -4.873039|   -6.673490|    0.824217|    0.012179|
|          22|   -4.872339|   -6.679406|    0.824199|    0.012182|
|          23|   -4.873712|   -6.679260|    0.824178|    0.012184|
|          24|   -4.876770|   -6.675698|    0.824153|    0.012185|
|          25|   -4.880976|   -6.672094|    0.824125|    0.012186|
|          26|   -4.885719|   -6.671171|    0.824094|    0.012185|
|          27|   -4.890405|   -6.674400|    0.824062|    0.012184|
|          28|   -4.894538|   -6.681954|    0.824029|    0.012181|
|          29|   -4.897764|   -6.692908|    0.823995|    0.012178|
|          30|   -4.899882|   -6.705542|    0.823962|    0.012174|
|          31|   -4.900816|   -6.717778|    0.823929|    0.012169|
|          32|   -4.900585|   -6.727747|    0.823897|    0.012163|
|          33|   -4.899277|   -6.734351|    0.823867|    0.012157|
|          34|   -4.897036|   -6.737565|    0.823839|    0.012149|
|          35|   -4.894060|   -6.738299|    0.823812|    0.012141|
|          36|   -4.890589|   -6.737947|    0.823787|    0.012133|
|          37|   -4.886884|   -6.737908|    0.823765|    0.012123|
|          38|   -4.883195|   -6.739264|    0.823744|    0.012114|
|          39|   -4.879730|   -6.742672|    0.823725|    0.012104|
|          40|   -4.876631|   -6.748390|    0.823708|    0.012094|
|          41|   -4.873957|   -6.756352|    0.823693|    0.012083|
|          42|   -4.871693|   -6.766279|    0.823679|    0.012073|
|          43|   -4.869755|   -6.777720|    0.823668|    0.012063|
|          44|   -4.868019|   -6.789985|    0.823658|    0.012054|
|          45|   -4.866338|   -6.801960|    0.823650|    0.012044|
|          46|   -4.864566|   -6.812125|    0.823644|    0.012035|
|          47|   -4.862576|   -6.818995|    0.823640|    0.012027|
|          48|   -4.860265|   -6.821660|    0.823637|    0.012019|
|          49|   -4.857562|   -6.820069|    0.823636|    0.012011|
|          50|   -4.854424|   -6.814898|    0.823638|    0.012004|
|          51|   -4.850837|   -6.807312|    0.823641|    0.011997|
|          52|   -4.846805|   -6.798644|    0.823646|    0.011991|
|          53|   -4.842351|   -6.790152|    0.823653|    0.011985|
|          54|   -4.837510|   -6.782867|    0.823662|    0.011979|
|          55|   -4.832325|   -6.777525|    0.823673|    0.011974|
|          56|   -4.826848|   -6.774567|    0.823686|    0.011969|
|          57|   -4.821131|   -6.774169|    0.823701|    0.011965|
|          58|   -4.815227|   -6.776277|    0.823717|    0.011960|
|          59|   -4.809187|   -6.780665|    0.823735|    0.011956|
|          60|   -4.803055|   -6.786975|    0.823755|    0.011952|
|          61|   -4.796872|   -6.794765|    0.823775|    0.011949|
|          62|   -4.790670|   -6.803561|    0.823797|    0.011946|
|          63|   -4.784476|   -6.812902|    0.823819|    0.011943|
|          64|   -4.778317|   -6.822376|    0.823841|    0.011940|
|          65|   -4.772214|   -6.831650|    0.823864|    0.011938|
|          66|   -4.766192|   -6.840468|    0.823886|    0.011936|
|          67|   -4.760273|   -6.848650|    0.823908|    0.011934|
|          68|   -4.754486|   -6.856072|    0.823928|    0.011933|
|          69|   -4.748854|   -6.862649|    0.823948|    0.011931|
|          70|   -4.743403|   -6.868324|    0.823967|    0.011931|
|          71|   -4.738156|   -6.873063|    0.823984|    0.011930|
|          72|   -4.733131|   -6.876854|    0.823999|    0.011929|
|          73|   -4.728339|   -6.879714|    0.824013|    0.011929|
|          74|   -4.723785|   -6.881689|    0.824026|    0.011929|
|          75|   -4.719464|   -6.882849|    0.824036|    0.011929|
|          76|   -4.715367|   -6.883292|    0.824045|    0.011929|
|          77|   -4.711476|   -6.883133|    0.824053|    0.011929|
|          78|   -4.707769|   -6.882474|    0.824060|    0.011929|
|          79|   -4.704224|   -6.881391|    0.824065|    0.011930|
|          80|   -4.700817|   -6.879913|    0.824069|    0.011930|
|          81|   -4.697530|   -6.878042|    0.824073|    0.011931|
|          82|   -4.694352|   -6.875777|    0.824075|    0.011931|
|          83|   -4.691279|   -6.873153|    0.824078|    0.011932|
|          84|   -4.688320|   -6.870258|    0.824079|    0.011933|
|          85|   -4.685492|   -6.867239|    0.824081|    0.011934|
|          86|   -4.682822|   -6.864284|    0.824082|    0.011935|
|          87|   -4.680346|   -6.861604|    0.824083|    0.011936|
|          88|   -4.678104|   -6.859405|    0.824085|    0.011938|
|          89|   -4.676140|   -6.857869|    0.824086|    0.011940|
|          90|   -4.674497|   -6.857133|    0.824088|    0.011941|
|          91|   -4.673213|   -6.857288|    0.824089|    0.011943|
|          92|   -4.672322|   -6.858367|    0.824092|    0.011945|
|          93|   -4.671850|   -6.860357|    0.824094|    0.011948|
|          94|   -4.671812|   -6.863204|    0.824097|    0.011950|
|          95|   -4.672214|   -6.866822|    0.824100|    0.011953|
|          96|   -4.673050|   -6.871104|    0.824103|    0.011956|
|          97|   -4.674302|   -6.875931|    0.824107|    0.011959|
|          98|   -4.675942|   -6.881180|    0.824111|    0.011963|
|          99|   -4.677928|   -6.886728|    0.824115|    0.011966|
|         100|   -4.680211|   -6.892464|    0.824119|    0.011970|
|         101|   -4.682729|   -6.898288|    0.824124|    0.011965|
+-----------------------------------------------------------------------+
|Fixed CL Mode                           |Value                         |
+-----------------------------------------------------------------------+
|Current CL                              |0.824124                      |
|Target CL                               |0.824                         |
|Previous AOA                            |2.76953                       |
|Changed AoA by                          |-0.000595591                  |
+-----------------------------------------------------------------------+
+----------------------------------------------------------------+
|  Inner_Iter|    rms[Rho]|     rms[nu]|          CL|          CD|
+----------------------------------------------------------------+
|         102|   -3.417413|   -6.891288|    0.824128|    0.011969|
|         103|   -3.795023|   -6.903188|    0.824133|    0.011973|
|         104|   -4.024058|   -6.910736|    0.824137|    0.011977|
|         105|   -4.098401|   -6.917376|    0.824142|    0.011982|
|         106|   -4.152298|   -6.923626|    0.824146|    0.011986|
|         107|   -4.221131|   -6.929625|    0.824150|    0.011990|
|         108|   -4.303829|   -6.935435|    0.824153|    0.011994|
|         109|   -4.387208|   -6.941108|    0.824156|    0.011998|
|         110|   -4.455297|   -6.946684|    0.824159|    0.012002|
|         111|   -4.500758|   -6.952185|    0.824161|    0.012006|
|         112|   -4.526111|   -6.957630|    0.824162|    0.012010|
|         113|   -4.536410|   -6.963045|    0.824163|    0.012014|
|         114|   -4.536667|   -6.968461|    0.824163|    0.012017|
|         115|   -4.532530|   -6.973908|    0.824163|    0.012020|
|         116|   -4.529141|   -6.979397|    0.824162|    0.012023|
|         117|   -4.529424|   -6.984928|    0.824161|    0.012026|
|         118|   -4.533673|   -6.990501|    0.824159|    0.012029|
|         119|   -4.540326|   -6.996115|    0.824156|    0.012031|
|         120|   -4.547236|   -7.001771|    0.824153|    0.012033|
|         121|   -4.552867|   -7.007477|    0.824150|    0.012035|
|         122|   -4.556850|   -7.013237|    0.824146|    0.012036|
|         123|   -4.559721|   -7.019060|    0.824142|    0.012038|
|         124|   -4.562271|   -7.024963|    0.824139|    0.012039|
|         125|   -4.565064|   -7.030968|    0.824134|    0.012040|
|         126|   -4.568325|   -7.037109|    0.824130|    0.012041|
|         127|   -4.572046|   -7.043420|    0.824126|    0.012041|
|         128|   -4.576129|   -7.049926|    0.824123|    0.012042|
|         129|   -4.580451|   -7.056645|    0.824119|    0.012042|
|         130|   -4.584876|   -7.063579|    0.824115|    0.012043|
|         131|   -4.589269|   -7.070718|    0.824112|    0.012043|
|         132|   -4.593524|   -7.078030|    0.824109|    0.012043|
|         133|   -4.597597|   -7.085468|    0.824106|    0.012043|
|         134|   -4.601514|   -7.092967|    0.824104|    0.012043|
|         135|   -4.605338|   -7.100443|    0.824102|    0.012043|
|         136|   -4.609134|   -7.107798|    0.824099|    0.012043|
|         137|   -4.612919|   -7.114927|    0.824098|    0.012043|
|         138|   -4.616648|   -7.121721|    0.824096|    0.012043|
|         139|   -4.620203|   -7.128075|    0.824094|    0.012042|
|         140|   -4.623414|   -7.133894|    0.824093|    0.012042|
|         141|   -4.626089|   -7.139098|    0.824091|    0.012042|
|         142|   -4.628054|   -7.143634|    0.824090|    0.012042|
|         143|   -4.629198|   -7.147482|    0.824088|    0.012041|
|         144|   -4.629504|   -7.150651|    0.824087|    0.012041|
|         145|   -4.629047|   -7.153179|    0.824085|    0.012041|
|         146|   -4.627979|   -7.155132|    0.824083|    0.012040|
|         147|   -4.626484|   -7.156598|    0.824080|    0.012040|
|         148|   -4.624737|   -7.157670|    0.824077|    0.012039|
|         149|   -4.622871|   -7.158438|    0.824074|    0.012038|
|         150|   -4.620964|   -7.158986|    0.824071|    0.012037|
|         151|   -4.619039|   -7.159390|    0.824067|    0.012036|
|         152|   -4.617080|   -7.159707|    0.824063|    0.012035|
|         153|   -4.615050|   -7.159969|    0.824058|    0.012034|
|         154|   -4.612912|   -7.160186|    0.824053|    0.012033|
|         155|   -4.610643|   -7.160352|    0.824048|    0.012031|
|         156|   -4.608241|   -7.160448|    0.824042|    0.012030|
|         157|   -4.605726|   -7.160433|    0.824036|    0.012028|
|         158|   -4.603135|   -7.160266|    0.824030|    0.012027|
|         159|   -4.600514|   -7.159888|    0.824024|    0.012025|
|         160|   -4.597910|   -7.159243|    0.824017|    0.012023|
|         161|   -4.595367|   -7.158283|    0.824010|    0.012021|
|         162|   -4.592922|   -7.156978|    0.824003|    0.012019|
|         163|   -4.590603|   -7.155308|    0.823996|    0.012017|
|         164|   -4.588429|   -7.153274|    0.823989|    0.012015|
|         165|   -4.586414|   -7.150897|    0.823982|    0.012013|
|         166|   -4.584567|   -7.148216|    0.823976|    0.012011|
|         167|   -4.582892|   -7.145286|    0.823969|    0.012009|
|         168|   -4.581390|   -7.142171|    0.823963|    0.012007|
|         169|   -4.580061|   -7.138945|    0.823957|    0.012005|
|         170|   -4.578900|   -7.135681|    0.823952|    0.012003|
|         171|   -4.577902|   -7.132460|    0.823947|    0.012001|
|         172|   -4.577058|   -7.129352|    0.823942|    0.011999|
|         173|   -4.576358|   -7.126423|    0.823938|    0.011997|
|         174|   -4.575790|   -7.123731|    0.823935|    0.011995|
|         175|   -4.575344|   -7.121317|    0.823932|    0.011993|
|         176|   -4.575008|   -7.119217|    0.823930|    0.011991|
|         177|   -4.574776|   -7.117461|    0.823928|    0.011990|
|         178|   -4.574641|   -7.116065|    0.823926|    0.011988|
|         179|   -4.574601|   -7.115035|    0.823926|    0.011986|
|         180|   -4.574656|   -7.114367|    0.823925|    0.011985|
|         181|   -4.574812|   -7.114048|    0.823926|    0.011984|
|         182|   -4.575073|   -7.114055|    0.823927|    0.011982|
|         183|   -4.575450|   -7.114363|    0.823928|    0.011981|
|         184|   -4.575953|   -7.114940|    0.823930|    0.011980|
|         185|   -4.576591|   -7.115753|    0.823932|    0.011979|
|         186|   -4.577375|   -7.116766|    0.823935|    0.011978|
|         187|   -4.578311|   -7.117943|    0.823938|    0.011977|
|         188|   -4.579403|   -7.119251|    0.823941|    0.011976|
|         189|   -4.580653|   -7.120656|    0.823945|    0.011975|
|         190|   -4.582054|   -7.122129|    0.823949|    0.011974|
|         191|   -4.583595|   -7.123646|    0.823954|    0.011973|
|         192|   -4.585260|   -7.125186|    0.823958|    0.011972|
|         193|   -4.587025|   -7.126736|    0.823963|    0.011972|
|         194|   -4.588859|   -7.128282|    0.823968|    0.011971|
|         195|   -4.590728|   -7.129817|    0.823973|    0.011971|
|         196|   -4.592592|   -7.131339|    0.823978|    0.011970|
|         197|   -4.594407|   -7.132849|    0.823983|    0.011969|
|         198|   -4.596130|   -7.134353|    0.823988|    0.011969|
|         199|   -4.597717|   -7.135855|    0.823993|    0.011969|
|         200|   -4.599130|   -7.137363|    0.823999|    0.011968|
|         201|   -4.600335|   -7.138888|    0.824004|    0.011968|
+-----------------------------------------------------------------------+
|Fixed CL Mode                           |Value                         |
+-----------------------------------------------------------------------+
|Current CL                              |0.824004                      |
|Target CL                               |0.824                         |
|Previous AOA                            |2.76893                       |
|Changed AoA by                          |7.0552e-06                    |
+-----------------------------------------------------------------------+
+----------------------------------------------------------------+
|  Inner_Iter|    rms[Rho]|     rms[nu]|          CL|          CD|
+----------------------------------------------------------------+
|         202|   -4.593909|   -7.140453|    0.824009|    0.011968|
|         203|   -4.601080|   -7.142058|    0.824014|    0.011968|
|         204|   -4.602905|   -7.143710|    0.824020|    0.011968|
|         205|   -4.603398|   -7.145423|    0.824025|    0.011968|
|         206|   -4.603316|   -7.147206|    0.824030|    0.011968|
|         207|   -4.602939|   -7.149070|    0.824035|    0.011968|
|         208|   -4.602445|   -7.151023|    0.824039|    0.011968|
|         209|   -4.601945|   -7.153071|    0.824044|    0.011969|
|         210|   -4.601511|   -7.155220|    0.824049|    0.011969|
|         211|   -4.601203|   -7.157473|    0.824053|    0.011970|
|         212|   -4.601085|   -7.159832|    0.824057|    0.011970|
|         213|   -4.601226|   -7.162298|    0.824061|    0.011971|
|         214|   -4.601697|   -7.164870|    0.824065|    0.011972|
|         215|   -4.602571|   -7.167547|    0.824069|    0.011972|
|         216|   -4.603919|   -7.170328|    0.824072|    0.011973|
|         217|   -4.605805|   -7.173213|    0.824075|    0.011974|
|         218|   -4.608287|   -7.176202|    0.824078|    0.011975|
|         219|   -4.611416|   -7.179296|    0.824081|    0.011976|
|         220|   -4.615234|   -7.182498|    0.824083|    0.011978|
|         221|   -4.619777|   -7.185810|    0.824085|    0.011979|
|         222|   -4.625072|   -7.189238|    0.824087|    0.011980|
|         223|   -4.631136|   -7.192786|    0.824089|    0.011981|
|         224|   -4.637977|   -7.196463|    0.824090|    0.011983|
|         225|   -4.645592|   -7.200280|    0.824091|    0.011984|
|         226|   -4.653966|   -7.204249|    0.824092|    0.011986|
|         227|   -4.663070|   -7.208386|    0.824092|    0.011987|
|         228|   -4.672866|   -7.212708|    0.824093|    0.011988|
|         229|   -4.683298|   -7.217232|    0.824093|    0.011990|
|         230|   -4.694296|   -7.221979|    0.824092|    0.011991|
|         231|   -4.705774|   -7.226969|    0.824092|    0.011993|
|         232|   -4.717629|   -7.232222|    0.824092|    0.011995|
|         233|   -4.729743|   -7.237760|    0.824091|    0.011996|
|         234|   -4.741981|   -7.243601|    0.824090|    0.011998|
|         235|   -4.754193|   -7.249763|    0.824089|    0.011999|
|         236|   -4.766220|   -7.256263|    0.824088|    0.012001|
|         237|   -4.777894|   -7.263112|    0.824087|    0.012002|
|         238|   -4.789046|   -7.270324|    0.824085|    0.012003|
|         239|   -4.799512|   -7.277905|    0.824084|    0.012005|
|         240|   -4.809142|   -7.285862|    0.824083|    0.012006|
|         241|   -4.817808|   -7.294195|    0.824081|    0.012008|
|         242|   -4.825413|   -7.302901|    0.824080|    0.012009|
|         243|   -4.831895|   -7.311974|    0.824078|    0.012010|
|         244|   -4.837232|   -7.321404|    0.824077|    0.012011|
|         245|   -4.841442|   -7.331180|    0.824075|    0.012013|
|         246|   -4.844581|   -7.341283|    0.824074|    0.012014|
|         247|   -4.846737|   -7.351691|    0.824072|    0.012015|
|         248|   -4.848025|   -7.362382|    0.824071|    0.012016|
|         249|   -4.848574|   -7.373328|    0.824069|    0.012017|
|         250|   -4.848525|   -7.384505|    0.824068|    0.012018|
|         251|   -4.848018|   -7.395884|    0.824066|    0.012019|
|         252|   -4.847192|   -7.407437|    0.824065|    0.012019|
|         253|   -4.846175|   -7.419138|    0.824064|    0.012020|
|         254|   -4.845084|   -7.430960|    0.824062|    0.012021|
|         255|   -4.844025|   -7.442881|    0.824061|    0.012022|
|         256|   -4.843089|   -7.454881|    0.824059|    0.012022|
|         257|   -4.842354|   -7.466946|    0.824058|    0.012023|
|         258|   -4.841886|   -7.479061|    0.824056|    0.012023|
|         259|   -4.841739|   -7.491215|    0.824054|    0.012023|
|         260|   -4.841958|   -7.503398|    0.824053|    0.012024|
|         261|   -4.842578|   -7.515599|    0.824051|    0.012024|
|         262|   -4.843627|   -7.527803|    0.824049|    0.012024|
|         263|   -4.845125|   -7.539996|    0.824047|    0.012024|
|         264|   -4.847087|   -7.552152|    0.824046|    0.012024|
|         265|   -4.849524|   -7.564242|    0.824044|    0.012024|
|         266|   -4.852440|   -7.576224|    0.824041|    0.012024|
|         267|   -4.855837|   -7.588050|    0.824039|    0.012024|
|         268|   -4.859713|   -7.599654|    0.824037|    0.012023|
|         269|   -4.864064|   -7.610956|    0.824035|    0.012023|
|         270|   -4.868881|   -7.621857|    0.824033|    0.012023|
|         271|   -4.874153|   -7.632247|    0.824030|    0.012022|
|         272|   -4.879867|   -7.642003|    0.824028|    0.012022|
|         273|   -4.886005|   -7.651001|    0.824025|    0.012021|
|         274|   -4.892548|   -7.659110|    0.824023|    0.012021|
|         275|   -4.899473|   -7.666208|    0.824021|    0.012020|
|         276|   -4.906755|   -7.672199|    0.824018|    0.012019|
|         277|   -4.914363|   -7.677002|    0.824016|    0.012018|
|         278|   -4.922264|   -7.680570|    0.824013|    0.012017|
|         279|   -4.930422|   -7.682896|    0.824011|    0.012017|
|         280|   -4.938796|   -7.684014|    0.824009|    0.012016|
|         281|   -4.947341|   -7.683994|    0.824006|    0.012015|
|         282|   -4.956008|   -7.682945|    0.824004|    0.012014|
|         283|   -4.964747|   -7.681006|    0.824002|    0.012013|
|         284|   -4.973501|   -7.678342|    0.824000|    0.012012|
|         285|   -4.982214|   -7.675129|    0.823999|    0.012011|
|         286|   -4.990827|   -7.671544|    0.823997|    0.012009|
|         287|   -4.999282|   -7.667760|    0.823996|    0.012008|
|         288|   -5.007519|   -7.663945|    0.823994|    0.012007|
|         289|   -5.015484|   -7.660250|    0.823993|    0.012006|
|         290|   -5.023123|   -7.656814|    0.823992|    0.012005|
|         291|   -5.030391|   -7.653761|    0.823991|    0.012004|
|         292|   -5.037247|   -7.651198|    0.823991|    0.012003|
|         293|   -5.043659|   -7.649217|    0.823990|    0.012002|
|         294|   -5.049603|   -7.647896|    0.823990|    0.012000|
|         295|   -5.055063|   -7.647299|    0.823990|    0.011999|
|         296|   -5.060035|   -7.647475|    0.823990|    0.011998|
|         297|   -5.064521|   -7.648459|    0.823990|    0.011997|
|         298|   -5.068533|   -7.650279|    0.823990|    0.011996|
|         299|   -5.072086|   -7.652945|    0.823991|    0.011995|
|         300|   -5.075204|   -7.656459|    0.823991|    0.011994|
|         301|   -5.077914|   -7.660812|    0.823992|    0.011994|
+-----------------------------------------------------------------------+
|Fixed CL Mode                           |Value                         |
+-----------------------------------------------------------------------+
|Current CL                              |0.823992                      |
|Target CL                               |0.824                         |
|Previous AOA                            |2.76894                       |
|Changed AoA by                          |4.37868e-05                   |
+-----------------------------------------------------------------------+
+----------------------------------------------------------------+
|  Inner_Iter|    rms[Rho]|     rms[nu]|          CL|          CD|
+----------------------------------------------------------------+
|         302|   -4.534627|   -7.664395|    0.823993|    0.011993|
|         303|   -4.855132|   -7.671500|    0.823994|    0.011992|
|         304|   -4.995433|   -7.678529|    0.823995|    0.011991|
|         305|   -5.025947|   -7.686048|    0.823996|    0.011990|
|         306|   -5.039846|   -7.694075|    0.823998|    0.011989|
|         307|   -5.053077|   -7.702543|    0.823999|    0.011989|
|         308|   -5.064736|   -7.711358|    0.824001|    0.011988|
|         309|   -5.072569|   -7.720403|    0.824003|    0.011987|
|         310|   -5.076470|   -7.729551|    0.824004|    0.011987|
|         311|   -5.077875|   -7.738661|    0.824006|    0.011986|
|         312|   -5.078110|   -7.747581|    0.824008|    0.011986|
|         313|   -5.077835|   -7.756163|    0.824010|    0.011985|
|         314|   -5.077339|   -7.764263|    0.824012|    0.011985|
|         315|   -5.076836|   -7.771752|    0.824014|    0.011984|
|         316|   -5.076515|   -7.778512|    0.824016|    0.011984|
|         317|   -5.076462|   -7.784449|    0.824018|    0.011984|
|         318|   -5.076618|   -7.789498|    0.824020|    0.011984|
|         319|   -5.076831|   -7.793624|    0.824022|    0.011983|
|         320|   -5.076952|   -7.796834|    0.824025|    0.011983|
|         321|   -5.076906|   -7.799163|    0.824027|    0.011983|
|         322|   -5.076711|   -7.800681|    0.824029|    0.011983|
|         323|   -5.076440|   -7.801475|    0.824031|    0.011983|
|         324|   -5.076171|   -7.801651|    0.824033|    0.011983|
|         325|   -5.075958|   -7.801322|    0.824036|    0.011983|
|         326|   -5.075827|   -7.800597|    0.824038|    0.011984|
|         327|   -5.075785|   -7.799580|    0.824040|    0.011984|
|         328|   -5.075837|   -7.798367|    0.824042|    0.011984|
|         329|   -5.075991|   -7.797036|    0.824044|    0.011984|
|         330|   -5.076262|   -7.795650|    0.824047|    0.011985|
|         331|   -5.076674|   -7.794253|    0.824049|    0.011985|
|         332|   -5.077258|   -7.792876|    0.824051|    0.011985|
|         333|   -5.078049|   -7.791533|    0.824053|    0.011986|
|         334|   -5.079087|   -7.790224|    0.824055|    0.011986|
|         335|   -5.080408|   -7.788939|    0.824057|    0.011987|
|         336|   -5.082039|   -7.787663|    0.824059|    0.011987|
|         337|   -5.084000|   -7.786365|    0.824061|    0.011987|
|         338|   -5.086299|   -7.785015|    0.824063|    0.011988|
|         339|   -5.088936|   -7.783582|    0.824065|    0.011989|
|         340|   -5.091904|   -7.782036|    0.824067|    0.011989|
|         341|   -5.095191|   -7.780354|    0.824069|    0.011990|
|         342|   -5.098784|   -7.778521|    0.824071|    0.011990|
|         343|   -5.102672|   -7.776530|    0.824072|    0.011991|
|         344|   -5.106844|   -7.774384|    0.824074|    0.011991|
|         345|   -5.111295|   -7.772095|    0.824075|    0.011992|
|         346|   -5.116020|   -7.769688|    0.824077|    0.011992|
|         347|   -5.121016|   -7.767194|    0.824078|    0.011993|
|         348|   -5.126274|   -7.764653|    0.824079|    0.011994|
|         349|   -5.131784|   -7.762111|    0.824081|    0.011994|
|         350|   -5.137529|   -7.759624|    0.824082|    0.011995|
|         351|   -5.143485|   -7.757242|    0.824082|    0.011995|
|         352|   -5.149622|   -7.755016|    0.824083|    0.011996|
|         353|   -5.155906|   -7.753000|    0.824084|    0.011996|
|         354|   -5.162297|   -7.751243|    0.824084|    0.011997|
|         355|   -5.168752|   -7.749794|    0.824085|    0.011997|
|         356|   -5.175226|   -7.748695|    0.824085|    0.011998|
|         357|   -5.181670|   -7.747983|    0.824085|    0.011998|
|         358|   -5.188036|   -7.747691|    0.824085|    0.011999|
|         359|   -5.194272|   -7.747842|    0.824085|    0.011999|
|         360|   -5.200326|   -7.748458|    0.824085|    0.012000|
|         361|   -5.206143|   -7.749546|    0.824085|    0.012000|
|         362|   -5.211670|   -7.751105|    0.824084|    0.012000|
|         363|   -5.216854|   -7.753128|    0.824084|    0.012001|
|         364|   -5.221645|   -7.755598|    0.824083|    0.012001|
|         365|   -5.225999|   -7.758491|    0.824082|    0.012001|
|         366|   -5.229875|   -7.761778|    0.824081|    0.012002|
|         367|   -5.233243|   -7.765420|    0.824080|    0.012002|
|         368|   -5.236081|   -7.769373|    0.824079|    0.012002|
|         369|   -5.238379|   -7.773583|    0.824078|    0.012003|
|         370|   -5.240138|   -7.777991|    0.824077|    0.012003|
|         371|   -5.241369|   -7.782534|    0.824075|    0.012003|
|         372|   -5.242094|   -7.787138|    0.824074|    0.012003|
|         373|   -5.242348|   -7.791732|    0.824072|    0.012003|
|         374|   -5.242172|   -7.796239|    0.824071|    0.012003|
|         375|   -5.241616|   -7.800586|    0.824069|    0.012004|
|         376|   -5.240733|   -7.804696|    0.824067|    0.012004|
|         377|   -5.239585|   -7.808503|    0.824065|    0.012004|
|         378|   -5.238231|   -7.811944|    0.824063|    0.012004|
|         379|   -5.236733|   -7.814963|    0.824061|    0.012004|
|         380|   -5.235153|   -7.817519|    0.824059|    0.012004|
|         381|   -5.233549|   -7.819582|    0.824057|    0.012004|
|         382|   -5.231977|   -7.821136|    0.824055|    0.012004|
|         383|   -5.230488|   -7.822177|    0.824053|    0.012004|
|         384|   -5.229130|   -7.822718|    0.824051|    0.012004|
|         385|   -5.227945|   -7.822780|    0.824049|    0.012004|
|         386|   -5.226969|   -7.822397|    0.824047|    0.012004|
|         387|   -5.226236|   -7.821612|    0.824045|    0.012003|
|         388|   -5.225771|   -7.820474|    0.824043|    0.012003|
|         389|   -5.225597|   -7.819037|    0.824041|    0.012003|
|         390|   -5.225731|   -7.817355|    0.824039|    0.012003|
|         391|   -5.226186|   -7.815485|    0.824037|    0.012003|
|         392|   -5.226970|   -7.813480|    0.824036|    0.012003|
|         393|   -5.228087|   -7.811389|    0.824034|    0.012003|
|         394|   -5.229537|   -7.809259|    0.824032|    0.012003|
|         395|   -5.231318|   -7.807129|    0.824030|    0.012002|
|         396|   -5.233422|   -7.805033|    0.824029|    0.012002|
|         397|   -5.235841|   -7.802999|    0.824027|    0.012002|
|         398|   -5.238561|   -7.801046|    0.824026|    0.012002|
|         399|   -5.241569|   -7.799191|    0.824024|    0.012002|
|         400|   -5.244846|   -7.797441|    0.824023|    0.012001|
|         401|   -5.248374|   -7.795800|    0.824022|    0.012000|
+-----------------------------------------------------------------------+
|Fixed CL Mode                           |Value                         |
+-----------------------------------------------------------------------+
|Current CL                              |0.824022                      |
|Target CL                               |0.824                         |
|Previous AOA                            |2.76898                       |
|Changed AoA by                          |-0.000114216                  |
+-----------------------------------------------------------------------+
+----------------------------------------------------------------+
|  Inner_Iter|    rms[Rho]|     rms[nu]|          CL|          CD|
+----------------------------------------------------------------+
|         402|   -4.134525|   -7.766217|    0.824020|    0.011999|
|         403|   -4.513530|   -7.778416|    0.824019|    0.011999|
|         404|   -4.742797|   -7.781491|    0.824018|    0.011999|
|         405|   -4.811440|   -7.782698|    0.824017|    0.011999|
|         406|   -4.856955|   -7.783144|    0.824017|    0.011998|
|         407|   -4.914779|   -7.783126|    0.824016|    0.011998|
|         408|   -4.982604|   -7.782799|    0.824015|    0.011998|
|         409|   -5.048037|   -7.782281|    0.824015|    0.011998|
|         410|   -5.099776|   -7.781658|    0.824014|    0.011998|
|         411|   -5.135557|   -7.780976|    0.824014|    0.011997|
|         412|   -5.159149|   -7.780268|    0.824013|    0.011997|
|         413|   -5.174053|   -7.779576|    0.824013|    0.011997|
|         414|   -5.182704|   -7.778950|    0.824013|    0.011997|
|         415|   -5.187991|   -7.778418|    0.824013|    0.011997|
|         416|   -5.193114|   -7.777995|    0.824013|    0.011996|
|         417|   -5.200301|   -7.777681|    0.824013|    0.011996|
|         418|   -5.210090|   -7.777479|    0.824014|    0.011996|
|         419|   -5.221598|   -7.777403|    0.824014|    0.011996|
|         420|   -5.233403|   -7.777470|    0.824014|    0.011996|
|         421|   -5.244459|   -7.777701|    0.824015|    0.011996|
|         422|   -5.254528|   -7.778109|    0.824015|    0.011995|
|         423|   -5.263977|   -7.778703|    0.824016|    0.011995|
|         424|   -5.273255|   -7.779491|    0.824017|    0.011995|
|         425|   -5.282505|   -7.780478|    0.824017|    0.011995|
|         426|   -5.291508|   -7.781670|    0.824018|    0.011995|
|         427|   -5.299851|   -7.783073|    0.824019|    0.011995|
|         428|   -5.307141|   -7.784690|    0.824020|    0.011995|
|         429|   -5.313135|   -7.786522|    0.824021|    0.011995|
|         430|   -5.317778|   -7.788565|    0.824022|    0.011995|
|         431|   -5.321184|   -7.790809|    0.824023|    0.011995|
|         432|   -5.323598|   -7.793237|    0.824024|    0.011995|
|         433|   -5.325351|   -7.795828|    0.824025|    0.011995|
|         434|   -5.326791|   -7.798549|    0.824027|    0.011995|
|         435|   -5.328212|   -7.801360|    0.824028|    0.011995|
|         436|   -5.329801|   -7.804218|    0.824029|    0.011995|
|         437|   -5.331608|   -7.807071|    0.824030|    0.011995|
|         438|   -5.333555|   -7.809866|    0.824032|    0.011995|
|         439|   -5.335463|   -7.812547|    0.824033|    0.011995|
|         440|   -5.337104|   -7.815060|    0.824034|    0.011995|
|         441|   -5.338245|   -7.817352|    0.824035|    0.011995|
|         442|   -5.338708|   -7.819376|    0.824037|    0.011995|
|         443|   -5.338403|   -7.821091|    0.824038|    0.011995|
|         444|   -5.337358|   -7.822462|    0.824039|    0.011995|
|         445|   -5.335699|   -7.823465|    0.824040|    0.011995|
|         446|   -5.333623|   -7.824082|    0.824041|    0.011996|
|         447|   -5.331350|   -7.824306|    0.824043|    0.011996|
|         448|   -5.329077|   -7.824141|    0.824044|    0.011996|
|         449|   -5.326949|   -7.823597|    0.824045|    0.011996|
|         450|   -5.325052|   -7.822697|    0.824046|    0.011996|
|         451|   -5.323414|   -7.821469|    0.824047|    0.011996|
|         452|   -5.322025|   -7.819951|    0.824047|    0.011996|
|         453|   -5.320852|   -7.818188|    0.824048|    0.011996|
|         454|   -5.319865|   -7.816232|    0.824049|    0.011997|
|         455|   -5.319046|   -7.814138|    0.824049|    0.011997|
|         456|   -5.318394|   -7.811960|    0.824050|    0.011997|
|         457|   -5.317930|   -7.809759|    0.824050|    0.011997|
|         458|   -5.317686|   -7.807592|    0.824051|    0.011997|
|         459|   -5.317705|   -7.805516|    0.824051|    0.011997|
|         460|   -5.318026|   -7.803589|    0.824051|    0.011997|
|         461|   -5.318683|   -7.801861|    0.824051|    0.011997|
|         462|   -5.319703|   -7.800382|    0.824051|    0.011997|
|         463|   -5.321101|   -7.799194|    0.824051|    0.011998|
|         464|   -5.322883|   -7.798334|    0.824051|    0.011998|
|         465|   -5.325049|   -7.797833|    0.824051|    0.011998|
|         466|   -5.327593|   -7.797714|    0.824050|    0.011998|
|         467|   -5.330507|   -7.797993|    0.824050|    0.011998|
|         468|   -5.333780|   -7.798682|    0.824049|    0.011998|
|         469|   -5.337400|   -7.799780|    0.824049|    0.011998|
|         470|   -5.341353|   -7.801282|    0.824048|    0.011998|
|         471|   -5.345623|   -7.803175|    0.824048|    0.011998|
|         472|   -5.350189|   -7.805435|    0.824047|    0.011998|
|         473|   -5.355030|   -7.808036|    0.824046|    0.011998|
|         474|   -5.360119|   -7.810939|    0.824046|    0.011998|
|         475|   -5.365424|   -7.814103|    0.824045|    0.011998|
|         476|   -5.370910|   -7.817479|    0.824044|    0.011998|
|         477|   -5.376538|   -7.821014|    0.824043|    0.011998|
|         478|   -5.382265|   -7.824650|    0.824043|    0.011998|
|         479|   -5.388044|   -7.828330|    0.824042|    0.011998|
|         480|   -5.393824|   -7.831994|    0.824041|    0.011997|
|         481|   -5.399553|   -7.835586|    0.824040|    0.011997|
|         482|   -5.405177|   -7.839053|    0.824040|    0.011997|
|         483|   -5.410640|   -7.842349|    0.824039|    0.011997|
|         484|   -5.415887|   -7.845436|    0.824038|    0.011997|
|         485|   -5.420863|   -7.848284|    0.824038|    0.011997|
|         486|   -5.425517|   -7.850877|    0.824037|    0.011997|
|         487|   -5.429801|   -7.853208|    0.824036|    0.011997|
|         488|   -5.433675|   -7.855282|    0.824036|    0.011996|
|         489|   -5.437102|   -7.857114|    0.824035|    0.011996|
|         490|   -5.440056|   -7.858727|    0.824035|    0.011996|
|         491|   -5.442519|   -7.860153|    0.824034|    0.011996|
|         492|   -5.444483|   -7.861431|    0.824034|    0.011996|
|         493|   -5.445948|   -7.862605|    0.824033|    0.011996|
|         494|   -5.446927|   -7.863719|    0.824033|    0.011995|
|         495|   -5.447439|   -7.864818|    0.824033|    0.011995|
|         496|   -5.447512|   -7.865947|    0.824032|    0.011995|
|         497|   -5.447183|   -7.867143|    0.824032|    0.011995|
|         498|   -5.446491|   -7.868441|    0.824032|    0.011995|
|         499|   -5.445483|   -7.869869|    0.824032|    0.011994|
|         500|   -5.444208|   -7.871451|    0.824031|    0.011994|
|         501|   -5.442717|   -7.873200|    0.824031|    0.011992|
+-----------------------------------------------------------------------+
|Fixed CL Mode                           |Value                         |
+-----------------------------------------------------------------------+
|Current CL                              |0.824031                      |
|Target CL                               |0.824                         |
|Previous AOA                            |2.76887                       |
|Changed AoA by                          |-0.000157127                  |
+-----------------------------------------------------------------------+
+----------------------------------------------------------------+
|  Inner_Iter|    rms[Rho]|     rms[nu]|          CL|          CD|
+----------------------------------------------------------------+
|         502|   -3.997067|   -7.809280|    0.824031|    0.011991|
|         503|   -4.381663|   -7.842895|    0.824031|    0.011991|
|         504|   -4.624910|   -7.855271|    0.824031|    0.011991|
|         505|   -4.701192|   -7.863232|    0.824031|    0.011991|
|         506|   -4.751550|   -7.869564|    0.824031|    0.011991|
|         507|   -4.816715|   -7.874932|    0.824031|    0.011990|
|         508|   -4.896128|   -7.879588|    0.824031|    0.011990|
|         509|   -4.976458|   -7.883715|    0.824031|    0.011990|
|         510|   -5.042427|   -7.887446|    0.824031|    0.011990|
|         511|   -5.088206|   -7.890836|    0.824031|    0.011990|
|         512|   -5.117131|   -7.893927|    0.824031|    0.011990|
|         513|   -5.133665|   -7.896808|    0.824031|    0.011989|
|         514|   -5.141416|   -7.899594|    0.824031|    0.011989|
|         515|   -5.144868|   -7.902355|    0.824031|    0.011989|
|         516|   -5.148841|   -7.905095|    0.824031|    0.011989|
|         517|   -5.156532|   -7.907773|    0.824031|    0.011989|
|         518|   -5.168599|   -7.910347|    0.824032|    0.011989|
|         519|   -5.183621|   -7.912795|    0.824032|    0.011989|
|         520|   -5.199341|   -7.915110|    0.824032|    0.011989|
|         521|   -5.214043|   -7.917277|    0.824032|    0.011989|
|         522|   -5.227321|   -7.919264|    0.824032|    0.011989|
|         523|   -5.239848|   -7.921022|    0.824033|    0.011989|
|         524|   -5.252536|   -7.922501|    0.824033|    0.011989|
|         525|   -5.265850|   -7.923659|    0.824033|    0.011989|
|         526|   -5.279623|   -7.924467|    0.824033|    0.011989|
|         527|   -5.293273|   -7.924925|    0.824033|    0.011989|
|         528|   -5.306115|   -7.925051|    0.824034|    0.011989|
|         529|   -5.317592|   -7.924875|    0.824034|    0.011989|
|         530|   -5.327388|   -7.924442|    0.824034|    0.011989|
|         531|   -5.335467|   -7.923800|    0.824034|    0.011989|
|         532|   -5.342088|   -7.922998|    0.824034|    0.011989|
|         533|   -5.347764|   -7.922084|    0.824034|    0.011989|
|         534|   -5.353155|   -7.921096|    0.824034|    0.011989|
|         535|   -5.358920|   -7.920067|    0.824035|    0.011989|
|         536|   -5.365574|   -7.919022|    0.824035|    0.011990|
|         537|   -5.373401|   -7.917977|    0.824035|    0.011990|
|         538|   -5.382419|   -7.916948|    0.824035|    0.011990|
|         539|   -5.392392|   -7.915943|    0.824035|    0.011990|
|         540|   -5.402871|   -7.914971|    0.824035|    0.011990|
|         541|   -5.413276|   -7.914040|    0.824035|    0.011990|
|         542|   -5.423004|   -7.913160|    0.824034|    0.011991|
|         543|   -5.431570|   -7.912338|    0.824034|    0.011991|
|         544|   -5.438719|   -7.911584|    0.824034|    0.011991|
|         545|   -5.444487|   -7.910902|    0.824034|    0.011991|
|         546|   -5.449163|   -7.910298|    0.824034|    0.011992|
|         547|   -5.453180|   -7.909773|    0.824033|    0.011992|
|         548|   -5.456978|   -7.909328|    0.824033|    0.011992|
|         549|   -5.460897|   -7.908959|    0.824032|    0.011993|
|         550|   -5.465107|   -7.908663|    0.824032|    0.011993|
|         551|   -5.469605|   -7.908434|    0.824032|    0.011993|
|         552|   -5.474248|   -7.908264|    0.824031|    0.011993|
|         553|   -5.478808|   -7.908143|    0.824030|    0.011994|
|         554|   -5.483043|   -7.908063|    0.824030|    0.011994|
|         555|   -5.486753|   -7.908024|    0.824029|    0.011994|
|         556|   -5.489818|   -7.908018|    0.824028|    0.011995|
|         557|   -5.492216|   -7.908040|    0.824027|    0.011995|
|         558|   -5.494009|   -7.908086|    0.824026|    0.011995|
|         559|   -5.495314|   -7.908152|    0.824025|    0.011995|
|         560|   -5.496271|   -7.908243|    0.824024|    0.011996|
|         561|   -5.497014|   -7.908369|    0.824023|    0.011996|
|         562|   -5.497655|   -7.908555|    0.824022|    0.011996|
|         563|   -5.498275|   -7.908807|    0.824021|    0.011996|
|         564|   -5.498928|   -7.909139|    0.824020|    0.011997|
|         565|   -5.499648|   -7.909566|    0.824018|    0.011997|
|         566|   -5.500457|   -7.910107|    0.824017|    0.011997|
|         567|   -5.501374|   -7.910777|    0.824016|    0.011997|
|         568|   -5.502421|   -7.911598|    0.824014|    0.011997|
|         569|   -5.503621|   -7.912591|    0.824013|    0.011998|
|         570|   -5.505000|   -7.913786|    0.824012|    0.011998|
|         571|   -5.506586|   -7.915189|    0.824010|    0.011998|
|         572|   -5.508406|   -7.916807|    0.824009|    0.011998|
|         573|   -5.510484|   -7.918645|    0.824007|    0.011998|
|         574|   -5.512839|   -7.920701|    0.824006|    0.011998|
|         575|   -5.515489|   -7.922969|    0.824005|    0.011999|
|         576|   -5.518443|   -7.925436|    0.824004|    0.011999|
|         577|   -5.521712|   -7.928080|    0.824002|    0.011999|
|         578|   -5.525302|   -7.930875|    0.824001|    0.011999|
|         579|   -5.529216|   -7.933782|    0.824000|    0.011999|
|         580|   -5.533456|   -7.936758|    0.823999|    0.011999|
|         581|   -5.538021|   -7.939750|    0.823998|    0.011999|
|         582|   -5.542909|   -7.942707|    0.823997|    0.011999|
|         583|   -5.548115|   -7.945577|    0.823996|    0.011999|
|         584|   -5.553632|   -7.948316|    0.823996|    0.011999|
|         585|   -5.559449|   -7.950881|    0.823995|    0.011999|
|         586|   -5.565553|   -7.953241|    0.823994|    0.011999|
|         587|   -5.571929|   -7.955374|    0.823994|    0.011999|
|         588|   -5.578555|   -7.957266|    0.823993|    0.011999|
|         589|   -5.585410|   -7.958919|    0.823993|    0.011999|
|         590|   -5.592465|   -7.960343|    0.823993|    0.011998|
|         591|   -5.599691|   -7.961558|    0.823992|    0.011998|
|         592|   -5.607052|   -7.962598|    0.823992|    0.011998|
|         593|   -5.614509|   -7.963502|    0.823992|    0.011998|
|         594|   -5.622020|   -7.964316|    0.823992|    0.011998|
|         595|   -5.629536|   -7.965091|    0.823992|    0.011998|
|         596|   -5.637006|   -7.965879|    0.823992|    0.011997|
|         597|   -5.644376|   -7.966732|    0.823992|    0.011997|
|         598|   -5.651587|   -7.967699|    0.823992|    0.011997|
|         599|   -5.658580|   -7.968827|    0.823993|    0.011997|
|         600|   -5.665296|   -7.970156|    0.823993|    0.011996|
|         601|   -5.671674|   -7.971711|    0.823993|    0.011997|
+-----------------------------------------------------------------------+
|Fixed CL Mode                           |Value                         |
+-----------------------------------------------------------------------+
|Current CL                              |0.823993                      |
|Target CL                               |0.824                         |
|Previous AOA                            |2.76871                       |
|Changed AoA by                          |3.59378e-05                   |
+-----------------------------------------------------------------------+
+----------------------------------------------------------------+
|  Inner_Iter|    rms[Rho]|     rms[nu]|          CL|          CD|
+----------------------------------------------------------------+
|         602|   -4.635801|   -7.966948|    0.823993|    0.011996|
|         603|   -5.012093|   -7.972147|    0.823994|    0.011996|
|         604|   -5.239386|   -7.975359|    0.823994|    0.011996|
|         605|   -5.310199|   -7.978432|    0.823995|    0.011996|
|         606|   -5.356889|   -7.981655|    0.823995|    0.011995|
|         607|   -5.413394|   -7.985093|    0.823995|    0.011995|
|         608|   -5.476644|   -7.988750|    0.823996|    0.011995|
|         609|   -5.533707|   -7.992604|    0.823996|    0.011994|
|         610|   -5.574233|   -7.996624|    0.823997|    0.011994|
|         611|   -5.598039|   -8.000774|    0.823997|    0.011994|
|         612|   -5.610473|   -8.005024|    0.823998|    0.011993|
|         613|   -5.615888|   -8.009347|    0.823998|    0.011993|
|         614|   -5.617061|   -8.013723|    0.823999|    0.011993|
|         615|   -5.616543|   -8.018130|    0.823999|    0.011992|
|         616|   -5.616653|   -8.022547|    0.823999|    0.011992|
|         617|   -5.618727|   -8.026952|    0.824000|    0.011992|
|         618|   -5.622773|   -8.031320|    0.824000|    0.011992|
|         619|   -5.627824|   -8.035635|    0.824001|    0.011991|
|         620|   -5.632667|   -8.039891|    0.824001|    0.011991|
|         621|   -5.636508|   -8.044085|    0.824001|    0.011991|
|         622|   -5.639235|   -8.048222|    0.824002|    0.011991|
|         623|   -5.641219|   -8.052306|    0.824002|    0.011990|
|         624|   -5.642948|   -8.056345|    0.824002|    0.011990|
|         625|   -5.644759|   -8.060347|    0.824002|    0.011990|
|         626|   -5.646787|   -8.064319|    0.824003|    0.011990|
|         627|   -5.649039|   -8.068271|    0.824003|    0.011990|
|         628|   -5.651471|   -8.072208|    0.824003|    0.011989|
|         629|   -5.654037|   -8.076120|    0.824003|    0.011989|
|         630|   -5.656702|   -8.080012|    0.824003|    0.011989|
|         631|   -5.659447|   -8.083887|    0.824003|    0.011989|
|         632|   -5.662287|   -8.087747|    0.824004|    0.011989|
|         633|   -5.665278|   -8.091588|    0.824004|    0.011989|
|         634|   -5.668513|   -8.095403|    0.824004|    0.011989|
|         635|   -5.672108|   -8.099179|    0.824004|    0.011989|
|         636|   -5.676171|   -8.102903|    0.824004|    0.011989|
|         637|   -5.680779|   -8.106556|    0.824004|    0.011989|
|         638|   -5.685969|   -8.110120|    0.824004|    0.011989|
|         639|   -5.691728|   -8.113578|    0.824004|    0.011989|
|         640|   -5.698001|   -8.116913|    0.824004|    0.011989|
|         641|   -5.704704|   -8.120111|    0.824004|    0.011989|
|         642|   -5.711742|   -8.123161|    0.824004|    0.011989|
|         643|   -5.719030|   -8.126059|    0.824004|    0.011989|
|         644|   -5.726511|   -8.128808|    0.824004|    0.011989|
|         645|   -5.734170|   -8.131422|    0.824004|    0.011989|
|         646|   -5.742026|   -8.133914|    0.824004|    0.011989|
|         647|   -5.750127|   -8.136305|    0.824005|    0.011989|
|         648|   -5.758521|   -8.138616|    0.824005|    0.011990|
|         649|   -5.767246|   -8.140871|    0.824005|    0.011990|
|         650|   -5.776309|   -8.143096|    0.824005|    0.011990|
|         651|   -5.785683|   -8.145317|    0.824005|    0.011990|
|         652|   -5.795310|   -8.147562|    0.824006|    0.011991|
|         653|   -5.805105|   -8.149856|    0.824006|    0.011991|
|         654|   -5.814970|   -8.152224|    0.824006|    0.011991|
|         655|   -5.824808|   -8.154685|    0.824006|    0.011991|
|         656|   -5.834528|   -8.157252|    0.824007|    0.011992|
|         657|   -5.844055|   -8.159934|    0.824007|    0.011992|
|         658|   -5.853329|   -8.162734|    0.824008|    0.011992|
|         659|   -5.862301|   -8.165648|    0.824008|    0.011993|
|         660|   -5.870932|   -8.168663|    0.824008|    0.011993|
|         661|   -5.879183|   -8.171761|    0.824009|    0.011993|
|         662|   -5.887017|   -8.174915|    0.824009|    0.011994|
|         663|   -5.894392|   -8.178094|    0.824010|    0.011994|
|         664|   -5.901268|   -8.181261|    0.824010|    0.011994|
|         665|   -5.907604|   -8.184373|    0.824011|    0.011995|
|         666|   -5.913365|   -8.187389|    0.824011|    0.011995|
|         667|   -5.918526|   -8.190262|    0.824011|    0.011995|
|         668|   -5.923073|   -8.192951|    0.824012|    0.011996|
|         669|   -5.927004|   -8.195416|    0.824012|    0.011996|
|         670|   -5.930333|   -8.197620|    0.824012|    0.011997|
|         671|   -5.933084|   -8.199538|    0.824013|    0.011997|
|         672|   -5.935293|   -8.201156|    0.824013|    0.011997|
|         673|   -5.937005|   -8.202478|    0.824013|    0.011998|
|         674|   -5.938272|   -8.203517|    0.824013|    0.011998|
|         675|   -5.939153|   -8.204292|    0.824014|    0.011998|
|         676|   -5.939708|   -8.204831|    0.824014|    0.011999|
|         677|   -5.940004|   -8.205168|    0.824014|    0.011999|
|         678|   -5.940104|   -8.205343|    0.824014|    0.011999|
|         679|   -5.940075|   -8.205403|    0.824014|    0.011999|
|         680|   -5.939981|   -8.205401|    0.824014|    0.012000|
|         681|   -5.939884|   -8.205390|    0.824014|    0.012000|
|         682|   -5.939844|   -8.205429|    0.824014|    0.012000|
|         683|   -5.939915|   -8.205594|    0.824013|    0.012000|
|         684|   -5.940150|   -8.205925|    0.824013|    0.012001|
|         685|   -5.940595|   -8.206459|    0.824013|    0.012001|
|         686|   -5.941293|   -8.207225|    0.824013|    0.012001|
|         687|   -5.942282|   -8.208247|    0.824012|    0.012001|
|         688|   -5.943596|   -8.209541|    0.824012|    0.012001|
|         689|   -5.945263|   -8.211115|    0.824011|    0.012001|
|         690|   -5.947311|   -8.212969|    0.824011|    0.012001|
|         691|   -5.949761|   -8.215091|    0.824010|    0.012001|
|         692|   -5.952630|   -8.217465|    0.824010|    0.012001|
|         693|   -5.955933|   -8.220060|    0.824009|    0.012001|
|         694|   -5.959680|   -8.222844|    0.824009|    0.012002|
|         695|   -5.963878|   -8.225778|    0.824008|    0.012002|
|         696|   -5.968531|   -8.228815|    0.824008|    0.012001|
|         697|   -5.973639|   -8.231906|    0.824007|    0.012001|
|         698|   -5.979200|   -8.234999|    0.824007|    0.012001|
|         699|   -5.985205|   -8.238050|    0.824006|    0.012001|
|         700|   -5.991646|   -8.240997|    0.824006|    0.012001|
|         701|   -5.998507|   -8.243786|    0.824005|    0.012001|
+-----------------------------------------------------------------------+
|Fixed CL Mode                           |Value                         |
+-----------------------------------------------------------------------+
|Current CL                              |0.824005                      |
|Target CL                               |0.824                         |
|Previous AOA                            |2.76875                       |
|Changed AoA by                          |-2.8219e-05                   |
+-----------------------------------------------------------------------+
+----------------------------------------------------------------+
|  Inner_Iter|    rms[Rho]|     rms[nu]|          CL|          CD|
+----------------------------------------------------------------+
|         702|   -4.742500|   -8.233700|    0.824005|    0.012001|
|         703|   -5.125959|   -8.242575|    0.824004|    0.012000|
|         704|   -5.367609|   -8.246433|    0.824003|    0.012000|
|         705|   -5.443999|   -8.249129|    0.824003|    0.012000|
|         706|   -5.494323|   -8.251253|    0.824002|    0.012000|
|         707|   -5.558489|   -8.252925|    0.824002|    0.012000|
|         708|   -5.635683|   -8.254174|    0.824001|    0.012000|
|         709|   -5.712608|   -8.255021|    0.824001|    0.011999|
|         710|   -5.774737|   -8.255496|    0.824001|    0.011999|
|         711|   -5.817304|   -8.255632|    0.824000|    0.011999|
|         712|   -5.844163|   -8.255480|    0.824000|    0.011999|
|         713|   -5.859865|   -8.255099|    0.823999|    0.011998|
|         714|   -5.867909|   -8.254554|    0.823999|    0.011998|
|         715|   -5.872428|   -8.253900|    0.823999|    0.011998|
|         716|   -5.877781|   -8.253182|    0.823998|    0.011998|
|         717|   -5.886821|   -8.252435|    0.823998|    0.011997|
|         718|   -5.900032|   -8.251693|    0.823998|    0.011997|
|         719|   -5.915913|   -8.250988|    0.823997|    0.011997|
|         720|   -5.932139|   -8.250350|    0.823997|    0.011997|
|         721|   -5.946905|   -8.249804|    0.823997|    0.011996|
|         722|   -5.959727|   -8.249371|    0.823997|    0.011996|
|         723|   -5.971248|   -8.249066|    0.823997|    0.011996|
|         724|   -5.982423|   -8.248902|    0.823996|    0.011995|
|         725|   -5.993829|   -8.248893|    0.823996|    0.011995|
|         726|   -6.005469|   -8.249041|    0.823996|    0.011995|
|         727|   -6.016954|   -8.249358|    0.823996|    0.011995|
|         728|   -6.027776|   -8.249853|    0.823996|    0.011994|
|         729|   -6.037496|   -8.250537|    0.823996|    0.011994|
|         730|   -6.045834|   -8.251420|    0.823996|    0.011994|
|         731|   -6.052706|   -8.252515|    0.823996|    0.011993|
|         732|   -6.058256|   -8.253830|    0.823996|    0.011993|
|         733|   -6.062851|   -8.255375|    0.823996|    0.011993|
|         734|   -6.067012|   -8.257157|    0.823996|    0.011993|
|         735|   -6.071287|   -8.259183|    0.823996|    0.011993|
|         736|   -6.076132|   -8.261459|    0.823996|    0.011992|
|         737|   -6.081822|   -8.263989|    0.823997|    0.011992|
|         738|   -6.088414|   -8.266778|    0.823997|    0.011992|
|         739|   -6.095755|   -8.269827|    0.823997|    0.011992|
|         740|   -6.103519|   -8.273136|    0.823997|    0.011992|
|         741|   -6.111277|   -8.276705|    0.823997|    0.011991|
|         742|   -6.118585|   -8.280531|    0.823997|    0.011991|
|         743|   -6.125092|   -8.284610|    0.823998|    0.011991|
|         744|   -6.130626|   -8.288934|    0.823998|    0.011991|
|         745|   -6.135231|   -8.293494|    0.823998|    0.011991|
|         746|   -6.139135|   -8.298279|    0.823998|    0.011991|
|         747|   -6.142672|   -8.303278|    0.823999|    0.011991|
|         748|   -6.146178|   -8.308480|    0.823999|    0.011991|
|         749|   -6.149911|   -8.313869|    0.823999|    0.011990|
|         750|   -6.154000|   -8.319428|    0.823999|    0.011990|
|         751|   -6.158439|   -8.325137|    0.823999|    0.011990|
|         752|   -6.163110|   -8.330978|    0.824000|    0.011990|
|         753|   -6.167824|   -8.336928|    0.824000|    0.011990|
|         754|   -6.172372|   -8.342966|    0.824000|    0.011990|
|         755|   -6.176569|   -8.349071|    0.824000|    0.011990|
|         756|   -6.180287|   -8.355225|    0.824000|    0.011990|
|         757|   -6.183466|   -8.361412|    0.824000|    0.011990|
|         758|   -6.186107|   -8.367615|    0.824001|    0.011991|
|         759|   -6.188258|   -8.373824|    0.824001|    0.011991|
|         760|   -6.189985|   -8.380030|    0.824001|    0.011991|
|         761|   -6.191358|   -8.386229|    0.824001|    0.011991|
|         762|   -6.192433|   -8.392422|    0.824001|    0.011991|
|         763|   -6.193247|   -8.398612|    0.824001|    0.011991|
|         764|   -6.193820|   -8.404807|    0.824001|    0.011991|
|         765|   -6.194158|   -8.411016|    0.824001|    0.011991|
|         766|   -6.194265|   -8.417249|    0.824001|    0.011991|
|         767|   -6.194142|   -8.423518|    0.824001|    0.011992|
|         768|   -6.193797|   -8.429831|    0.824001|    0.011992|
|         769|   -6.193242|   -8.436199|    0.824001|    0.011992|
|         770|   -6.192494|   -8.442627|    0.824001|    0.011992|
|         771|   -6.191573|   -8.449117|    0.824001|    0.011992|
|         772|   -6.190499|   -8.455665|    0.824001|    0.011992|
|         773|   -6.189295|   -8.462258|    0.824001|    0.011993|
|         774|   -6.187980|   -8.468874|    0.824001|    0.011993|
|         775|   -6.186572|   -8.475483|    0.824000|    0.011993|
|         776|   -6.185089|   -8.482050|    0.824000|    0.011993|
|         777|   -6.183545|   -8.488532|    0.824000|    0.011994|
|         778|   -6.181958|   -8.494884|    0.824000|    0.011994|
|         779|   -6.180341|   -8.501061|    0.824000|    0.011994|
|         780|   -6.178709|   -8.507017|    0.824000|    0.011994|
|         781|   -6.177076|   -8.512712|    0.824000|    0.011995|
|         782|   -6.175456|   -8.518112|    0.824000|    0.011995|
|         783|   -6.173862|   -8.523193|    0.824000|    0.011995|
|         784|   -6.172308|   -8.527941|    0.824000|    0.011995|
|         785|   -6.170804|   -8.532353|    0.824000|    0.011995|
|         786|   -6.169362|   -8.536439|    0.824000|    0.011996|
|         787|   -6.167993|   -8.540221|    0.824000|    0.011996|
|         788|   -6.166705|   -8.543729|    0.823999|    0.011996|
|         789|   -6.165508|   -8.547003|    0.823999|    0.011996|
|         790|   -6.164408|   -8.550089|    0.823999|    0.011997|
|         791|   -6.163411|   -8.553036|    0.823999|    0.011997|
|         792|   -6.162522|   -8.555894|    0.823999|    0.011997|
|         793|   -6.161742|   -8.558713|    0.823999|    0.011997|
|         794|   -6.161072|   -8.561537|    0.823999|    0.011997|
|         795|   -6.160509|   -8.564408|    0.823999|    0.011998|
|         796|   -6.160048|   -8.567369|    0.823999|    0.011998|
|         797|   -6.159682|   -8.570450|    0.823999|    0.011998|
|         798|   -6.159400|   -8.573674|    0.823999|    0.011998|
|         799|   -6.159189|   -8.577053|    0.823999|    0.011998|
|         800|   -6.159032|   -8.580593|    0.823999|    0.011998|
|         801|   -6.158912|   -8.584293|    0.823999|    0.011999|
+-----------------------------------------------------------------------+
|Fixed CL Mode                           |Value                         |
+-----------------------------------------------------------------------+
|Current CL                              |0.823999                      |
|Target CL                               |0.824                         |
|Previous AOA                            |2.76872                       |
|Changed AoA by                          |5.0349e-06                    |
+-----------------------------------------------------------------------+
+----------------------------------------------------------------+
|  Inner_Iter|    rms[Rho]|     rms[nu]|          CL|          CD|
+----------------------------------------------------------------+
|         802|   -5.480645|   -8.585651|    0.823999|    0.011999|
|         803|   -5.817153|   -8.590749|    0.823999|    0.011999|
|         804|   -5.973943|   -8.595205|    0.823999|    0.011999|
|         805|   -6.012944|   -8.599618|    0.823999|    0.011999|
|         806|   -6.037836|   -8.604071|    0.823999|    0.011999|
|         807|   -6.065177|   -8.608578|    0.823998|    0.011999|
|         808|   -6.091593|   -8.613136|    0.823998|    0.011999|
|         809|   -6.112016|   -8.617737|    0.823998|    0.011999|
|         810|   -6.124891|   -8.622368|    0.823998|    0.011999|
|         811|   -6.131931|   -8.627010|    0.823998|    0.011999|
|         812|   -6.135333|   -8.631642|    0.823998|    0.011999|
|         813|   -6.136436|   -8.636248|    0.823998|    0.011999|
|         814|   -6.135998|   -8.640813|    0.823998|    0.011999|
|         815|   -6.134664|   -8.645326|    0.823998|    0.011999|
|         816|   -6.133025|   -8.649772|    0.823997|    0.011999|
|         817|   -6.131459|   -8.654145|    0.823997|    0.011999|
|         818|   -6.130049|   -8.658437|    0.823997|    0.011999|
|         819|   -6.128660|   -8.662645|    0.823997|    0.011999|
|         820|   -6.127108|   -8.666763|    0.823997|    0.011999|
|         821|   -6.125288|   -8.670787|    0.823997|    0.011999|
|         822|   -6.123212|   -8.674709|    0.823996|    0.011999|
|         823|   -6.120967|   -8.678517|    0.823996|    0.011999|
|         824|   -6.118652|   -8.682197|    0.823996|    0.011999|
|         825|   -6.116338|   -8.685731|    0.823996|    0.011999|
|         826|   -6.114068|   -8.689099|    0.823996|    0.011998|
|         827|   -6.111871|   -8.692280|    0.823996|    0.011998|
|         828|   -6.109775|   -8.695251|    0.823996|    0.011998|
|         829|   -6.107809|   -8.697988|    0.823995|    0.011998|
|         830|   -6.106005|   -8.700468|    0.823995|    0.011998|
|         831|   -6.104390|   -8.702673|    0.823995|    0.011998|
|         832|   -6.102991|   -8.704586|    0.823995|    0.011997|
|         833|   -6.101831|   -8.706194|    0.823995|    0.011997|
|         834|   -6.100935|   -8.707490|    0.823995|    0.011997|
|         835|   -6.100323|   -8.708475|    0.823995|    0.011997|
|         836|   -6.100014|   -8.709154|    0.823994|    0.011997|
|         837|   -6.100017|   -8.709540|    0.823994|    0.011997|
|         838|   -6.100336|   -8.709652|    0.823994|    0.011996|
|         839|   -6.100966|   -8.709514|    0.823994|    0.011996|
|         840|   -6.101897|   -8.709159|    0.823994|    0.011996|
|         841|   -6.103113|   -8.708620|    0.823994|    0.011996|
|         842|   -6.104597|   -8.707936|    0.823994|    0.011996|
|         843|   -6.106326|   -8.707150|    0.823994|    0.011995|
|         844|   -6.108282|   -8.706304|    0.823994|    0.011995|
|         845|   -6.110446|   -8.705442|    0.823994|    0.011995|
|         846|   -6.112799|   -8.704614|    0.823994|    0.011995|
|         847|   -6.115321|   -8.703861|    0.823994|    0.011995|
|         848|   -6.117989|   -8.703227|    0.823994|    0.011995|
|         849|   -6.120775|   -8.702752|    0.823994|    0.011994|
|         850|   -6.123646|   -8.702475|    0.823994|    0.011994|
|         851|   -6.126563|   -8.702431|    0.823994|    0.011994|
|         852|   -6.129485|   -8.702653|    0.823994|    0.011994|
|         853|   -6.132366|   -8.703167|    0.823994|    0.011994|
|         854|   -6.135162|   -8.703997|    0.823994|    0.011994|
|         855|   -6.137827|   -8.705163|    0.823995|    0.011994|
|         856|   -6.140319|   -8.706679|    0.823995|    0.011993|
|         857|   -6.142601|   -8.708553|    0.823995|    0.011993|
|         858|   -6.144638|   -8.710789|    0.823995|    0.011993|
|         859|   -6.146399|   -8.713383|    0.823995|    0.011993|
|         860|   -6.147859|   -8.716326|    0.823996|    0.011993|
|         861|   -6.148996|   -8.719600|    0.823996|    0.011993|
|         862|   -6.149796|   -8.723182|    0.823996|    0.011993|
|         863|   -6.150247|   -8.727037|    0.823996|    0.011993|
|         864|   -6.150345|   -8.731126|    0.823996|    0.011993|
|         865|   -6.150093|   -8.735397|    0.823997|    0.011993|
|         866|   -6.149497|   -8.739795|    0.823997|    0.011993|
|         867|   -6.148571|   -8.744252|    0.823997|    0.011993|
|         868|   -6.147337|   -8.748696|    0.823998|    0.011993|
|         869|   -6.145817|   -8.753049|    0.823998|    0.011993|
|         870|   -6.144041|   -8.757229|    0.823998|    0.011993|
|         871|   -6.142043|   -8.761148|    0.823998|    0.011993|
|         872|   -6.139857|   -8.764721|    0.823999|    0.011993|
|         873|   -6.137521|   -8.767867|    0.823999|    0.011993|
|         874|   -6.135073|   -8.770520|    0.823999|    0.011993|
|         875|   -6.132551|   -8.772626|    0.823999|    0.011993|
|         876|   -6.129995|   -8.774149|    0.824000|    0.011993|
|         877|   -6.127442|   -8.775066|    0.824000|    0.011993|
|         878|   -6.124928|   -8.775374|    0.824000|    0.011993|
|         879|   -6.122488|   -8.775090|    0.824000|    0.011993|
|         880|   -6.120153|   -8.774245|    0.824001|    0.011993|
|         881|   -6.117956|   -8.772886|    0.824001|    0.011993|
|         882|   -6.115923|   -8.771075|    0.824001|    0.011993|
|         883|   -6.114081|   -8.768882|    0.824001|    0.011993|
|         884|   -6.112453|   -8.766382|    0.824001|    0.011994|
|         885|   -6.111060|   -8.763654|    0.824002|    0.011994|
|         886|   -6.109921|   -8.760776|    0.824002|    0.011994|
|         887|   -6.109050|   -8.757822|    0.824002|    0.011994|
|         888|   -6.108462|   -8.754862|    0.824002|    0.011994|
|         889|   -6.108168|   -8.751960|    0.824002|    0.011994|
|         890|   -6.108176|   -8.749169|    0.824002|    0.011994|
|         891|   -6.108493|   -8.746539|    0.824002|    0.011994|
|         892|   -6.109123|   -8.744106|    0.824002|    0.011994|
|         893|   -6.110067|   -8.741901|    0.824002|    0.011995|
|         894|   -6.111325|   -8.739947|    0.824002|    0.011995|
|         895|   -6.112894|   -8.738259|    0.824002|    0.011995|
|         896|   -6.114770|   -8.736846|    0.824002|    0.011995|
|         897|   -6.116945|   -8.735714|    0.824002|    0.011995|
|         898|   -6.119408|   -8.734860|    0.824002|    0.011995|
|         899|   -6.122149|   -8.734282|    0.824002|    0.011995|
|         900|   -6.125152|   -8.733972|    0.824002|    0.011996|
|         901|   -6.128402|   -8.733923|    0.824002|    0.011995|
+-----------------------------------------------------------------------+
|Fixed CL Mode                           |Value                         |
+-----------------------------------------------------------------------+
|Current CL                              |0.824002                      |
|Target CL                               |0.824                         |
|Previous AOA                            |2.76872                       |
[...]
|        5298|   -6.046327|   -7.937487|    0.824239|    0.012000|
|        5299|   -6.053016|   -7.941452|    0.824239|    0.012000|
|        5300|   -6.059282|   -7.945476|    0.824239|    0.012000|
|        5301|   -6.065091|   -7.949573|    0.824239|    0.012000|
|        5302|   -6.070422|   -7.953753|    0.824239|    0.012000|
|        5303|   -6.075264|   -7.958023|    0.824239|    0.012000|
|        5304|   -6.079622|   -7.962387|    0.824239|    0.012000|
|        5305|   -6.083512|   -7.966847|    0.824240|    0.012000|
|        5306|   -6.086959|   -7.971402|    0.824240|    0.011999|
|        5307|   -6.090002|   -7.976053|    0.824240|    0.011999|
|        5308|   -6.092687|   -7.980798|    0.824240|    0.011999|
|        5309|   -6.095064|   -7.985636|    0.824240|    0.011999|
|        5310|   -6.097191|   -7.990567|    0.824240|    0.011999|
|        5311|   -6.099126|   -7.995590|    0.824240|    0.011999|
|        5312|   -6.100929|   -8.000708|    0.824240|    0.011999|
|        5313|   -6.102658|   -8.005921|    0.824240|    0.011999|
|        5314|   -6.104370|   -8.011234|    0.824240|    0.011999|
|        5315|   -6.106116|   -8.016651|    0.824240|    0.011999|
|        5316|   -6.107944|   -8.022178|    0.824241|    0.011999|
|        5317|   -6.109896|   -8.027819|    0.824241|    0.011999|
|        5318|   -6.112008|   -8.033581|    0.824241|    0.012000|
|        5319|   -6.114311|   -8.039469|    0.824241|    0.012000|
|        5320|   -6.116828|   -8.045489|    0.824241|    0.012000|
|        5321|   -6.119576|   -8.051646|    0.824241|    0.012000|
|        5322|   -6.122564|   -8.057943|    0.824241|    0.012000|
|        5323|   -6.125795|   -8.064379|    0.824241|    0.012000|
|        5324|   -6.129267|   -8.070956|    0.824242|    0.012000|
|        5325|   -6.132964|   -8.077674|    0.824242|    0.012000|
|        5326|   -6.136875|   -8.084530|    0.824242|    0.012000|
|        5327|   -6.140979|   -8.091522|    0.824242|    0.012000|
|        5328|   -6.145246|   -8.098644|    0.824242|    0.012000|
|        5329|   -6.149645|   -8.105890|    0.824242|    0.012000|
|        5330|   -6.154138|   -8.113252|    0.824242|    0.012000|
|        5331|   -6.158684|   -8.120721|    0.824242|    0.012000|
|        5332|   -6.163240|   -8.128284|    0.824243|    0.012000|
|        5333|   -6.167762|   -8.135931|    0.824243|    0.012001|
|        5334|   -6.172206|   -8.143647|    0.824243|    0.012001|
|        5335|   -6.176527|   -8.151419|    0.824243|    0.012001|
|        5336|   -6.180685|   -8.159233|    0.824243|    0.012001|
|        5337|   -6.184643|   -8.167075|    0.824243|    0.012001|
|        5338|   -6.188369|   -8.174931|    0.824243|    0.012001|
|        5339|   -6.191839|   -8.182789|    0.824243|    0.012001|
|        5340|   -6.195036|   -8.190639|    0.824244|    0.012001|
|        5341|   -6.197950|   -8.198471|    0.824244|    0.012001|
|        5342|   -6.200581|   -8.206273|    0.824244|    0.012001|
|        5343|   -6.202938|   -8.214041|    0.824244|    0.012001|
|        5344|   -6.205038|   -8.221773|    0.824244|    0.012001|
|        5345|   -6.206906|   -8.229467|    0.824244|    0.012001|
|        5346|   -6.208573|   -8.237122|    0.824244|    0.012002|
|        5347|   -6.210077|   -8.244739|    0.824244|    0.012002|
|        5348|   -6.211457|   -8.252315|    0.824244|    0.012002|
|        5349|   -6.212758|   -8.259853|    0.824244|    0.012002|
|        5350|   -6.214024|   -8.267355|    0.824244|    0.012002|
|        5351|   -6.215302|   -8.274825|    0.824245|    0.012002|
|        5352|   -6.216635|   -8.282269|    0.824245|    0.012002|
|        5353|   -6.218066|   -8.289698|    0.824245|    0.012002|
|        5354|   -6.219636|   -8.297118|    0.824245|    0.012002|
|        5355|   -6.221381|   -8.304532|    0.824245|    0.012002|
|        5356|   -6.223334|   -8.311944|    0.824245|    0.012002|
|        5357|   -6.225525|   -8.319357|    0.824245|    0.012002|
|        5358|   -6.227976|   -8.326771|    0.824245|    0.012002|
|        5359|   -6.230708|   -8.334189|    0.824245|    0.012002|
|        5360|   -6.233736|   -8.341611|    0.824245|    0.012002|
|        5361|   -6.237069|   -8.349040|    0.824245|    0.012002|
|        5362|   -6.240712|   -8.356476|    0.824245|    0.012002|
|        5363|   -6.244664|   -8.363918|    0.824245|    0.012002|
|        5364|   -6.248922|   -8.371380|    0.824245|    0.012002|
|        5365|   -6.253473|   -8.378859|    0.824245|    0.012002|
|        5366|   -6.258303|   -8.386350|    0.824245|    0.012002|
|        5367|   -6.263392|   -8.393847|    0.824245|    0.012002|
|        5368|   -6.268715|   -8.401346|    0.824245|    0.012002|
|        5369|   -6.274242|   -8.408841|    0.824244|    0.012002|
|        5370|   -6.279941|   -8.416326|    0.824244|    0.012002|
|        5371|   -6.285772|   -8.423796|    0.824244|    0.012002|
|        5372|   -6.291696|   -8.431262|    0.824244|    0.012002|
|        5373|   -6.297667|   -8.438707|    0.824244|    0.012002|
|        5374|   -6.303638|   -8.446126|    0.824244|    0.012002|
|        5375|   -6.309561|   -8.453515|    0.824244|    0.012002|
|        5376|   -6.315388|   -8.460876|    0.824244|    0.012002|
|        5377|   -6.321071|   -8.468193|    0.824244|    0.012002|
|        5378|   -6.326564|   -8.475457|    0.824244|    0.012002|
|        5379|   -6.331824|   -8.482658|    0.824244|    0.012001|
|        5380|   -6.336810|   -8.489788|    0.824244|    0.012001|
|        5381|   -6.341490|   -8.496840|    0.824244|    0.012001|
|        5382|   -6.345834|   -8.503807|    0.824244|    0.012001|
|        5383|   -6.349823|   -8.510686|    0.824244|    0.012001|
|        5384|   -6.353439|   -8.517472|    0.824244|    0.012001|
|        5385|   -6.356677|   -8.524160|    0.824244|    0.012001|
|        5386|   -6.359539|   -8.530748|    0.824244|    0.012001|
|        5387|   -6.362032|   -8.537232|    0.824244|    0.012001|
|        5388|   -6.364167|   -8.543607|    0.824244|    0.012001|
|        5389|   -6.365962|   -8.549879|    0.824244|    0.012001|
|        5390|   -6.367439|   -8.556045|    0.824244|    0.012001|
|        5391|   -6.368622|   -8.562093|    0.824244|    0.012000|
|        5392|   -6.369538|   -8.568015|    0.824244|    0.012000|
|        5393|   -6.370215|   -8.573803|    0.824244|    0.012000|
|        5394|   -6.370679|   -8.579447|    0.824244|    0.012000|
|        5395|   -6.370957|   -8.584939|    0.824244|    0.012000|
|        5396|   -6.371073|   -8.590267|    0.824244|    0.012000|
|        5397|   -6.371048|   -8.595420|    0.824244|    0.012000|
|        5398|   -6.370902|   -8.600383|    0.824244|    0.012000|
|        5399|   -6.370651|   -8.605146|    0.824244|    0.012000|
|        5400|   -6.370310|   -8.609694|    0.824245|    0.011999|
|        5401|   -6.369891|   -8.614018|    0.824245|    0.011999|
|        5402|   -6.369403|   -8.618109|    0.824245|    0.011999|
|        5403|   -6.368853|   -8.621962|    0.824245|    0.011999|
|        5404|   -6.368248|   -8.625575|    0.824245|    0.011999|
|        5405|   -6.367591|   -8.628948|    0.824245|    0.011999|
|        5406|   -6.366886|   -8.632088|    0.824245|    0.011999|
|        5407|   -6.366136|   -8.635001|    0.824245|    0.011999|
|        5408|   -6.365343|   -8.637702|    0.824245|    0.011999|
|        5409|   -6.364508|   -8.640205|    0.824246|    0.011999|
|        5410|   -6.363633|   -8.642528|    0.824246|    0.011998|
|        5411|   -6.362720|   -8.644693|    0.824246|    0.011998|
|        5412|   -6.361772|   -8.646724|    0.824246|    0.011998|
|        5413|   -6.360791|   -8.648646|    0.824246|    0.011998|
|        5414|   -6.359781|   -8.650479|    0.824246|    0.011998|
|        5415|   -6.358745|   -8.652244|    0.824246|    0.011998|
|        5416|   -6.357689|   -8.653964|    0.824246|    0.011998|
|        5417|   -6.356617|   -8.655657|    0.824246|    0.011998|
|        5418|   -6.355537|   -8.657342|    0.824247|    0.011998|
|        5419|   -6.354455|   -8.659035|    0.824247|    0.011998|
|        5420|   -6.353379|   -8.660747|    0.824247|    0.011998|
|        5421|   -6.352318|   -8.662486|    0.824247|    0.011998|
|        5422|   -6.351280|   -8.664256|    0.824247|    0.011998|
|        5423|   -6.350276|   -8.666058|    0.824247|    0.011998|
|        5424|   -6.349317|   -8.667890|    0.824247|    0.011998|
|        5425|   -6.348414|   -8.669747|    0.824247|    0.011998|
|        5426|   -6.347581|   -8.671623|    0.824247|    0.011998|
|        5427|   -6.346830|   -8.673509|    0.824247|    0.011997|
|        5428|   -6.346174|   -8.675393|    0.824247|    0.011997|
|        5429|   -6.345629|   -8.677267|    0.824247|    0.011997|
|        5430|   -6.345209|   -8.679116|    0.824247|    0.011997|
|        5431|   -6.344929|   -8.680928|    0.824247|    0.011997|
|        5432|   -6.344806|   -8.682695|    0.824247|    0.011997|
|        5433|   -6.344853|   -8.684409|    0.824248|    0.011997|
|        5434|   -6.345087|   -8.686064|    0.824248|    0.011997|
|        5435|   -6.345522|   -8.687658|    0.824248|    0.011997|
|        5436|   -6.346173|   -8.689189|    0.824248|    0.011997|
|        5437|   -6.347055|   -8.690658|    0.824248|    0.011998|
|        5438|   -6.348178|   -8.692067|    0.824248|    0.011998|
|        5439|   -6.349555|   -8.693422|    0.824248|    0.011998|
|        5440|   -6.351197|   -8.694729|    0.824248|    0.011998|
|        5441|   -6.353110|   -8.695996|    0.824248|    0.011998|
|        5442|   -6.355302|   -8.697232|    0.824248|    0.011998|
|        5443|   -6.357778|   -8.698448|    0.824248|    0.011998|
|        5444|   -6.360538|   -8.699657|    0.824248|    0.011998|
|        5445|   -6.363582|   -8.700862|    0.824248|    0.011998|
|        5446|   -6.366906|   -8.702071|    0.824248|    0.011998|
|        5447|   -6.370504|   -8.703290|    0.824248|    0.011998|
|        5448|   -6.374367|   -8.704524|    0.824248|    0.011998|
|        5449|   -6.378480|   -8.705782|    0.824248|    0.011998|
|        5450|   -6.382827|   -8.707070|    0.824248|    0.011998|
|        5451|   -6.387389|   -8.708391|    0.824247|    0.011998|
|        5452|   -6.392140|   -8.709748|    0.824247|    0.011998|
|        5453|   -6.397053|   -8.711136|    0.824247|    0.011998|
|        5454|   -6.402097|   -8.712550|    0.824247|    0.011998|
|        5455|   -6.407238|   -8.713981|    0.824247|    0.011999|
|        5456|   -6.412437|   -8.715420|    0.824247|    0.011999|
|        5457|   -6.417655|   -8.716856|    0.824247|    0.011999|
|        5458|   -6.422846|   -8.718279|    0.824247|    0.011999|
|        5459|   -6.427968|   -8.719679|    0.824247|    0.011999|
|        5460|   -6.432972|   -8.721044|    0.824247|    0.011999|
|        5461|   -6.437815|   -8.722363|    0.824247|    0.011999|
|        5462|   -6.442449|   -8.723628|    0.824247|    0.011999|
|        5463|   -6.446831|   -8.724828|    0.824247|    0.011999|
|        5464|   -6.450920|   -8.725956|    0.824246|    0.011999|
|        5465|   -6.454679|   -8.727004|    0.824246|    0.011999|
|        5466|   -6.458075|   -8.727965|    0.824246|    0.011999|
|        5467|   -6.461084|   -8.728833|    0.824246|    0.012000|
|        5468|   -6.463685|   -8.729603|    0.824246|    0.012000|
|        5469|   -6.465865|   -8.730272|    0.824246|    0.012000|
|        5470|   -6.467620|   -8.730837|    0.824246|    0.012000|
|        5471|   -6.468953|   -8.731297|    0.824246|    0.012000|
|        5472|   -6.469874|   -8.731651|    0.824245|    0.012000|
|        5473|   -6.470399|   -8.731898|    0.824245|    0.012000|
|        5474|   -6.470551|   -8.732039|    0.824245|    0.012000|
|        5475|   -6.470360|   -8.732075|    0.824245|    0.012000|
|        5476|   -6.469857|   -8.732008|    0.824245|    0.012000|
|        5477|   -6.469078|   -8.731841|    0.824245|    0.012000|
|        5478|   -6.468063|   -8.731577|    0.824244|    0.012000|
|        5479|   -6.466850|   -8.731219|    0.824244|    0.012000|
|        5480|   -6.465481|   -8.730771|    0.824244|    0.012000|
|        5481|   -6.463994|   -8.730239|    0.824244|    0.012000|
|        5482|   -6.462429|   -8.729626|    0.824244|    0.012000|
|        5483|   -6.460822|   -8.728940|    0.824244|    0.012000|
|        5484|   -6.459210|   -8.728187|    0.824243|    0.012000|
|        5485|   -6.457624|   -8.727373|    0.824243|    0.012000|
|        5486|   -6.456095|   -8.726507|    0.824243|    0.012000|
|        5487|   -6.454650|   -8.725595|    0.824243|    0.012000|
|        5488|   -6.453314|   -8.724647|    0.824243|    0.012000|
|        5489|   -6.452108|   -8.723672|    0.824243|    0.012000|
|        5490|   -6.451053|   -8.722679|    0.824242|    0.012000|
|        5491|   -6.450163|   -8.721678|    0.824242|    0.012000|
|        5492|   -6.449454|   -8.720679|    0.824242|    0.012000|
|        5493|   -6.448936|   -8.719693|    0.824242|    0.012000|
|        5494|   -6.448619|   -8.718731|    0.824242|    0.012000|
|        5495|   -6.448510|   -8.717803|    0.824242|    0.012000|
|        5496|   -6.448614|   -8.716920|    0.824242|    0.012000|
|        5497|   -6.448935|   -8.716092|    0.824241|    0.012000|
|        5498|   -6.449476|   -8.715329|    0.824241|    0.012000|
|        5499|   -6.450237|   -8.714642|    0.824241|    0.011986|
+-----------------------------------------------------------------------+
|Fixed CL Mode (Finite Difference)       |Value                         |
+-----------------------------------------------------------------------+
|Delta CL / Delta AoA                    |0.240891                      |
|Delta CD / Delta CL                     |0.0191726                     |
|Delta CMz / Delta CL                    |0.00495114                    |
+-----------------------------------------------------------------------+
Writing Flow Meta-Data file: flow.meta

----------------------------- Solver Exit -------------------------------

Maximum number of iterations reached (ITER = 5500) before convergence.
+-----------------------------------------------------------------------+
|      Convergence Field     |     Value    |   Criterion  |  Converged |
+-----------------------------------------------------------------------+
|                    rms[Rho]|      -6.45024|         < -12|          No|
+-----------------------------------------------------------------------+
-------------------------------------------------------------------------

--------------------------- Finalizing Solver ---------------------------
Deleted CNumerics container.
Deleted CIntegration container.
Deleted CSolver container.
Deleted CIteration container.
Deleted CInterface container.
Deleted CGeometry container.
Deleted CFreeFormDefBox class.
Deleted CSurfaceMovement class.
Deleted CVolumetricMovement class.
Deleted CConfig container.
Deleted nInst container.
Deleted COutput class.
-------------------------------------------------------------------------

------------------------- Exit Success (SU2_CFD) ------------------------


-------------------------------------------------------------------------
|    ___ _   _ ___                                                      |
|   / __| | | |_  )   Release 8.0.0 "Harrier"                           |
|   \__ \ |_| |/ /                                                      |
|   |___/\___//___|   Suite (Solution Exporting Code)                   |
|                                                                       |
-------------------------------------------------------------------------
| SU2 Project Website: https://su2code.github.io                        |
|                                                                       |
| The SU2 Project is maintained by the SU2 Foundation                   |
| (http://su2foundation.org)                                            |
-------------------------------------------------------------------------
| Copyright 2012-2023, SU2 Contributors                                 |
|                                                                       |
| SU2 is free software; you can redistribute it and/or                  |
| modify it under the terms of the GNU Lesser General Public            |
| License as published by the Free Software Foundation; either          |
| version 2.1 of the License, or (at your option) any later version.    |
|                                                                       |
| SU2 is distributed in the hope that it will be useful,                |
| but WITHOUT ANY WARRANTY; without even the implied warranty of        |
| MERCHANTABILITY or FITNESS FOR A PARTICULAR PURPOSE. See the GNU      |
| Lesser General Public License for more details.                       |
|                                                                       |
| You should have received a copy of the GNU Lesser General Public      |
| License along with SU2. If not, see <http://www.gnu.org/licenses/>.   |
-------------------------------------------------------------------------

----------------- Physical Case Definition ( Zone 0 ) -------------------
Input mesh file name: mesh_RAE2822_turb_deform.su2

-------------------- Output Information ( Zone 0 ) ----------------------
The tabular file format is CSV (.csv).
Flow variables file name: flow.

------------- Config File Boundary Information ( Zone 0 ) ---------------
+-----------------------------------------------------------------------+
|                        Marker Type|                        Marker Name|
+-----------------------------------------------------------------------+
|                          Far-field|                           FARFIELD|
+-----------------------------------------------------------------------+
|                     Heat flux wall|                            AIRFOIL|
+-----------------------------------------------------------------------+
Two dimensional problem.
13937 grid points before partitioning.
22842 volume elements before partitioning.
2 surface markers.
192 boundary elements in index 0 (Marker = AIRFOIL).
40 boundary elements in index 1 (Marker = FARFIELD).
Executing the partitioning functions.
Building the graph adjacency structure.
Calling ParMETIS... graph partitioning complete (831 edge cuts).
Distributing ParMETIS coloring.
Rebalancing vertices.
Rebalancing volume element connectivity.
Rebalancing markers and surface elements.
14875 vertices including ghost points. 
23674 interior elements including halo cells. 
18780 triangles.
4894 quadrilaterals.
Establishing MPI communication patterns.
Identify vertices.
Storing a mapping from global to local point index.

------------------------- Solution Postprocessing -----------------------
Reading and storing the solution from restart_flow.
Volume output fields: COORDINATES, SOLUTION
  Info: Ignoring the following screen output fields:
  RMS_DENSITY, RMS_NU_TILDE, LIFT, DRAG
Screen output fields: INNER_ITER
  Info: Ignoring the following history output groups:
  RMS_RES, AERO_COEFF
History output group(s): ITER
Warning: No (valid) fields chosen for convergence monitoring. Convergence monitoring inactive.
Warning: No (valid) fields chosen for time convergence monitoring. Time convergence monitoring inactive.
|Paraview                           |flow.vtu                           |
|Paraview surface                   |surface_flow.vtu                   |
|CSV file                           |surface_flow.csv                   |

------------------------- Finalize Solver -------------------------
Deleted CGeometry container.
Deleted CSolver class.
Deleted CConfig container.
Deleted COutput class.

Completed in 0.020115 seconds on 6 cores.

------------------------- Exit Success (SU2_SOL) ------------------------

