
-------------------------------------------------------------------------
|    ___ _   _ ___                                                      |
|   / __| | | |_  )   Release 8.0.0 "Harrier"                           |
|   \__ \ |_| |/ /                                                      |
|   |___/\___//___|   Suite (Computational Fluid Dynamics Code)         |
|                                                                       |
-------------------------------------------------------------------------
| SU2 Project Website: https://su2code.github.io                        |
|                                                                       |
| The SU2 Project is maintained by the SU2 Foundation                   |
| (http://su2foundation.org)                                            |
-------------------------------------------------------------------------
| Copyright 2012-2023, SU2 Contributors                                 |
|                                                                       |
| SU2 is free software; you can redistribute it and/or                  |
| modify it under the terms of the GNU Lesser General Public            |
| License as published by the Free Software Foundation; either          |
| version 2.1 of the License, or (at your option) any later version.    |
|                                                                       |
| SU2 is distributed in the hope that it will be useful,                |
| but WITHOUT ANY WARRANTY; without even the implied warranty of        |
| MERCHANTABILITY or FITNESS FOR A PARTICULAR PURPOSE. See the GNU      |
| Lesser General Public License for more details.                       |
|                                                                       |
| You should have received a copy of the GNU Lesser General Public      |
| License along with SU2. If not, see <http://www.gnu.org/licenses/>.   |
-------------------------------------------------------------------------

Parsing config file for zone 0

----------------- Physical Case Definition ( Zone 0 ) -------------------
Compressible RANS equations.
Turbulence model: Spalart-Allmaras-noft2
Hybrid RANS/LES: No Hybrid RANS/LES
Mach number: 0.734.
Angle of attack (AoA): 2.31 deg, and angle of sideslip (AoS): 0 deg.
Reynolds number: 6.5e+06. Reference length 1.
Fixed CL mode, target value: 0.824.
Reading and writing binary SU2 native restart files.
Read flow solution from: solution_flow.dat.
Dimensional simulation.
The reference area is 1 m^2.
The semi-span will be computed using the max y(3D) value.
The reference length is 1 m.
Reference origin for moment evaluation is (0.25, 0, 0).
Surface(s) where the force coefficients are evaluated: AIRFOIL.

Surface(s) plotted in the output file: AIRFOIL.
Surface(s) affected by the design variables: AIRFOIL.
Input mesh file name: mesh_RAE2822_turb_deform.su2

--------------- Space Numerical Integration ( Zone 0 ) ------------------
Jameson-Schmidt-Turkel scheme (2nd order in space) for the flow inviscid terms.
JST viscous coefficients (2nd & 4th): 0.5, 0.02.
The method includes a grid stretching correction (p = 0.3).
Scalar upwind solver for the turbulence model.
First order integration in space.
Average of gradients with correction (viscous flow terms).
Average of gradients with correction (viscous turbulence terms).
Gradient for viscous and source terms: inverse-distance weighted Least-Squares.

--------------- Time Numerical Integration  ( Zone 0 ) ------------------
Local time stepping (steady state simulation).
Euler implicit method for the flow equations.
FGMRES is used for solving the linear system.
Using a ILU(0) preconditioning.
Convergence criteria of the linear solver: 1e-06.
Max number of linear iterations: 10.
No CFL adaptation.
Courant-Friedrichs-Lewy number:       10
Euler implicit time integration for the turbulence model.

------------------ Convergence Criteria  ( Zone 0 ) ---------------------
Maximum number of solver subiterations: 5500.
Begin convergence monitoring at iteration 10.
Residual minimum value: 1e-12.
Cauchy series min. value: 1e-06.
Number of Cauchy elements: 100.
Begin windowed time average at iteration 0.

-------------------- Output Information ( Zone 0 ) ----------------------
File writing frequency: 
+------------------------------------+
|                     File| Frequency|
+------------------------------------+
|                  RESTART|     10000|
|                 PARAVIEW|     10000|
|         SURFACE_PARAVIEW|     10000|
|              SURFACE_CSV|     10000|
+------------------------------------+
Writing the convergence history file every 1 inner iterations.
Writing the screen convergence history every 1 inner iterations.
The tabular file format is CSV (.csv).
Convergence history file name: history_direct.
Forces breakdown file name: forces_breakdown.dat.
Surface file name: surface_flow.
Volume file name: flow.
Restart file name: restart_flow.dat.

------------- Config File Boundary Information ( Zone 0 ) ---------------
+-----------------------------------------------------------------------+
|                        Marker Type|                        Marker Name|
+-----------------------------------------------------------------------+
|                          Far-field|                           FARFIELD|
+-----------------------------------------------------------------------+
|                     Heat flux wall|                            AIRFOIL|
+-----------------------------------------------------------------------+

-------------------- Output Preprocessing ( Zone 0 ) --------------------

WARNING: SURFACE_PRESSURE_DROP can only be computed for at least 2 surfaces (outlet, inlet, ...)

Screen output fields: INNER_ITER, RMS_DENSITY, RMS_NU_TILDE, LIFT, DRAG
History output group(s): ITER, RMS_RES, AERO_COEFF
Convergence field(s): RMS_DENSITY
Warning: No (valid) fields chosen for time convergence monitoring. Time convergence monitoring inactive.
Volume output fields: COORDINATES, SOLUTION, PRIMITIVE

------------------- Geometry Preprocessing ( Zone 0 ) -------------------
Two dimensional problem.
13937 grid points before partitioning.
22842 volume elements before partitioning.
2 surface markers.
192 boundary elements in index 0 (Marker = AIRFOIL).
40 boundary elements in index 1 (Marker = FARFIELD).
Executing the partitioning functions.
Building the graph adjacency structure.
Calling ParMETIS... graph partitioning complete (831 edge cuts).
Distributing ParMETIS coloring.
Rebalancing vertices.
Rebalancing volume element connectivity.
Rebalancing markers and surface elements.
14875 vertices including ghost points. 
23674 interior elements including halo cells. 
18780 triangles.
4894 quadrilaterals.
Establishing MPI communication patterns.
Setting point connectivity.
Renumbering points (Reverse Cuthill McKee Ordering).
Recomputing point connectivity.
Setting element connectivity.
Checking the numerical grid orientation.
All volume elements are correctly orientend.
All surface elements are correctly orientend.
Identifying edges and vertices.
Setting the control volume structure.
Area of the computational grid: 32209.9.
Searching for the closest normal neighbors to the surfaces.
Storing a mapping from global to local point index.
Compute the surface curvature.
Max K: 187.825. Mean K: 8.07186. Standard deviation K: 25.3744.
Checking for periodicity.
Computing mesh quality statistics for the dual control volumes.
+--------------------------------------------------------------+
|           Mesh Quality Metric|        Minimum|        Maximum|
+--------------------------------------------------------------+
|    Orthogonality Angle (deg.)|        74.8849|             90|
|     CV Face Area Aspect Ratio|        1.00491|        3358.35|
|           CV Sub-Volume Ratio|        1.00048|        1217.71|
+--------------------------------------------------------------+
Finding max control volume width.
Communicating number of neighbors.
Wetted area = 2.02148 m.
Area projection in the x-plane = 0.126116 m, y-plane = 0.995873 m.
Max. coordinate in the x-direction = 1 m, y-direction = 0.0619837 m.
Min. coordinate in the x-direction = 0 m, y-direction = -0.0607806 m.
Computing wall distances.

-------------------- Solver Preprocessing ( Zone 0 ) --------------------
WARNING: AoA in the solution file (2.78037 deg.) +
         AoA offset in mesh file (0 deg.) = 2.78037 deg.
WARNING: SU2 will use the dCD/dCL provided in the direct solution file: 0.0176999.
WARNING: SU2 will use the dCMz/dCL provided in the direct solution file: 0.00255937.
Viscous flow: Computing pressure using the ideal gas law
based on the free-stream temperature and a density computed
from the Reynolds number.
Force coefficients computed using free-stream values.

-- Models:
+------------------------------------------------------------------------------+
|          Viscosity Model|        Conductivity Model|              Fluid Model|
+------------------------------------------------------------------------------+
|               SUTHERLAND|          CONSTANT_PRANDTL|             STANDARD_AIR|
+------------------------------------------------------------------------------+
-- Fluid properties:
+------------------------------------------------------------------------------+
|                  Name|    Dim. value|    Ref. value|      Unit|Non-dim. value|
+------------------------------------------------------------------------------+
|        Ref. Viscosity|     1.716e-05|             1|   N.s/m^2|     1.716e-05|
|      Sutherland Temp.|        273.15|             1|         K|        273.15|
|     Sutherland Const.|         110.4|             1|         K|         110.4|
+------------------------------------------------------------------------------+
|        Prandtl (Lam.)|             -|             -|         -|          0.71|
|       Prandtl (Turb.)|             -|             -|         -|           0.9|
+------------------------------------------------------------------------------+
|          Gas Constant|       287.058|             1|  N.m/kg.K|       287.058|
|      Spec. Heat Ratio|             -|             -|         -|           1.4|
+------------------------------------------------------------------------------+
-- Initial and free-stream conditions:
+------------------------------------------------------------------------------+
|                  Name|    Dim. value|    Ref. value|      Unit|Non-dim. value|
+------------------------------------------------------------------------------+
|       Static Pressure|         38515|             1|        Pa|         38515|
|               Density|      0.465631|             1|    kg/m^3|      0.465631|
|           Temperature|        288.15|             1|         K|        288.15|
|          Total Energy|        237984|             1|   m^2/s^2|        237984|
|            Velocity-X|       249.484|             1|       m/s|       249.484|
|            Velocity-Y|       12.1161|             1|       m/s|       12.1161|
|    Velocity Magnitude|       249.778|             1|       m/s|       249.778|
+------------------------------------------------------------------------------+
|             Viscosity|    1.7893e-05|             1|   N.s/m^2|    1.7893e-05|
|          Conductivity|             -|             1|   W/m^2.K|             -|
|     Turb. Kin. Energy|       233.959|             1|   m^2/s^2|       233.959|
|     Spec. Dissipation|        608834|             1|       1/s|        608834|
+------------------------------------------------------------------------------+
|           Mach Number|             -|             -|         -|         0.734|
|       Reynolds Number|             -|             -|         -|       6.5e+06|
+------------------------------------------------------------------------------+
Initialize Jacobian structure (Navier-Stokes). MG level: 0.
Initialize Jacobian structure (SA model).

------------------- Numerics Preprocessing ( Zone 0 ) -------------------

----------------- Integration Preprocessing ( Zone 0 ) ------------------

------------------- Iteration Preprocessing ( Zone 0 ) ------------------
Euler/Navier-Stokes/RANS fluid iteration.

------------------------------ Begin Solver -----------------------------

Simulation Run using the Single-zone Driver
WARNING: SU2 was not compiled for an AVX-capable architecture. Performance could be better,
         see https://su2code.github.io/docs_v7/Build-SU2-Linux-MacOS/#compiler-optimizations
+----------------------------------------------------------------+
|  Inner_Iter|    rms[Rho]|     rms[nu]|          CL|          CD|
+----------------------------------------------------------------+
|           0|   -5.148062|   -6.406550|    0.823952|    0.012050|
|           1|   -5.201694|   -6.497942|    0.823924|    0.012046|
|           2|   -5.258832|   -6.606861|    0.823909|    0.012044|
|           3|   -5.302987|   -6.730316|    0.823906|    0.012043|
|           4|   -5.335046|   -6.863887|    0.823908|    0.012042|
|           5|   -5.357321|   -6.990094|    0.823911|    0.012042|
|           6|   -5.370958|   -7.068193|    0.823914|    0.012042|
|           7|   -5.376934|   -7.075078|    0.823915|    0.012042|
|           8|   -5.376224|   -7.046578|    0.823913|    0.012040|
|           9|   -5.369741|   -7.019936|    0.823911|    0.012038|
|          10|   -5.358681|   -7.006766|    0.823907|    0.012036|
|          11|   -5.344790|   -7.005390|    0.823904|    0.012033|
|          12|   -5.330074|   -7.009408|    0.823901|    0.012029|
|          13|   -5.316234|   -7.011500|    0.823899|    0.012025|
|          14|   -5.304282|   -7.006367|    0.823897|    0.012021|
|          15|   -5.294504|   -6.992773|    0.823897|    0.012016|
|          16|   -5.286671|   -6.973149|    0.823898|    0.012012|
|          17|   -5.280334|   -6.951321|    0.823900|    0.012008|
|          18|   -5.275074|   -6.930525|    0.823904|    0.012003|
|          19|   -5.270633|   -6.912645|    0.823908|    0.011999|
|          20|   -5.266922|   -6.898254|    0.823914|    0.011995|
|          21|   -5.263951|   -6.886956|    0.823919|    0.011992|
|          22|   -5.261747|   -6.877774|    0.823924|    0.011988|
|          23|   -5.260302|   -6.869570|    0.823929|    0.011985|
|          24|   -5.259562|   -6.861442|    0.823934|    0.011983|
|          25|   -5.259431|   -6.853014|    0.823937|    0.011981|
|          26|   -5.259789|   -6.844513|    0.823940|    0.011979|
|          27|   -5.260502|   -6.836633|    0.823942|    0.011977|
|          28|   -5.261434|   -6.830275|    0.823942|    0.011975|
|          29|   -5.262461|   -6.826303|    0.823942|    0.011974|
|          30|   -5.263488|   -6.825372|    0.823941|    0.011973|
|          31|   -5.264457|   -6.827854|    0.823939|    0.011972|
|          32|   -5.265356|   -6.833821|    0.823937|    0.011971|
|          33|   -5.266199|   -6.843054|    0.823935|    0.011970|
|          34|   -5.267018|   -6.855062|    0.823933|    0.011970|
|          35|   -5.267833|   -6.869103|    0.823931|    0.011969|
|          36|   -5.268646|   -6.884228|    0.823930|    0.011968|
|          37|   -5.269432|   -6.899349|    0.823930|    0.011967|
|          38|   -5.270149|   -6.913370|    0.823930|    0.011966|
|          39|   -5.270746|   -6.925354|    0.823931|    0.011965|
|          40|   -5.271174|   -6.934702|    0.823934|    0.011964|
|          41|   -5.271404|   -6.941271|    0.823937|    0.011963|
|          42|   -5.271424|   -6.945381|    0.823941|    0.011963|
|          43|   -5.271248|   -6.947700|    0.823946|    0.011962|
|          44|   -5.270901|   -6.949066|    0.823952|    0.011961|
|          45|   -5.270420|   -6.950306|    0.823959|    0.011961|
|          46|   -5.269836|   -6.952108|    0.823966|    0.011960|
|          47|   -5.269168|   -6.954953|    0.823974|    0.011960|
|          48|   -5.268422|   -6.959092|    0.823982|    0.011960|
|          49|   -5.267581|   -6.964554|    0.823990|    0.011960|
|          50|   -5.266612|   -6.971173|    0.823998|    0.011960|
|          51|   -5.265472|   -6.978623|    0.824005|    0.011961|
|          52|   -5.264116|   -6.986462|    0.824013|    0.011962|
|          53|   -5.262507|   -6.994188|    0.824020|    0.011962|
|          54|   -5.260622|   -7.001312|    0.824026|    0.011963|
|          55|   -5.258459|   -7.007425|    0.824032|    0.011964|
|          56|   -5.256037|   -7.012258|    0.824037|    0.011966|
|          57|   -5.253390|   -7.015725|    0.824041|    0.011967|
|          58|   -5.250566|   -7.017909|    0.824044|    0.011968|
|          59|   -5.247615|   -7.019034|    0.824047|    0.011970|
|          60|   -5.244587|   -7.019393|    0.824049|    0.011971|
|          61|   -5.241528|   -7.019283|    0.824051|    0.011973|
|          62|   -5.238474|   -7.018951|    0.824052|    0.011974|
|          63|   -5.235453|   -7.018556|    0.824052|    0.011976|
|          64|   -5.232487|   -7.018165|    0.824052|    0.011977|
|          65|   -5.229587|   -7.017762|    0.824052|    0.011979|
|          66|   -5.226761|   -7.017278|    0.824051|    0.011980|
|          67|   -5.224015|   -7.016630|    0.824050|    0.011982|
|          68|   -5.221351|   -7.015755|    0.824049|    0.011984|
|          69|   -5.218773|   -7.014634|    0.824048|    0.011985|
|          70|   -5.216285|   -7.013309|    0.824047|    0.011987|
|          71|   -5.213892|   -7.011873|    0.824046|    0.011988|
|          72|   -5.211602|   -7.010463|    0.824044|    0.011990|
|          73|   -5.209423|   -7.009229|    0.824043|    0.011992|
|          74|   -5.207363|   -7.008315|    0.824041|    0.011993|
|          75|   -5.205431|   -7.007839|    0.824040|    0.011995|
|          76|   -5.203635|   -7.007886|    0.824038|    0.011996|
|          77|   -5.201978|   -7.008496|    0.824037|    0.011998|
|          78|   -5.200464|   -7.009675|    0.824035|    0.011999|
|          79|   -5.199090|   -7.011401|    0.824033|    0.012001|
|          80|   -5.197851|   -7.013630|    0.824031|    0.012002|
|          81|   -5.196736|   -7.016310|    0.824030|    0.012003|
|          82|   -5.195733|   -7.019389|    0.824028|    0.012005|
|          83|   -5.194825|   -7.022818|    0.824026|    0.012006|
|          84|   -5.193995|   -7.026556|    0.824025|    0.012007|
|          85|   -5.193225|   -7.030572|    0.824023|    0.012008|
|          86|   -5.192497|   -7.034836|    0.824021|    0.012009|
|          87|   -5.191797|   -7.039320|    0.824020|    0.012010|
|          88|   -5.191111|   -7.043996|    0.824019|    0.012011|
|          89|   -5.190430|   -7.048830|    0.824017|    0.012012|
|          90|   -5.189749|   -7.053785|    0.824016|    0.012013|
|          91|   -5.189067|   -7.058814|    0.824015|    0.012014|
|          92|   -5.188388|   -7.063871|    0.824014|    0.012015|
|          93|   -5.187721|   -7.068902|    0.824013|    0.012016|
|          94|   -5.187081|   -7.073859|    0.824012|    0.012017|
|          95|   -5.186483|   -7.078693|    0.824011|    0.012018|
|          96|   -5.185950|   -7.083362|    0.824010|    0.012019|
|          97|   -5.185504|   -7.087829|    0.824009|    0.012019|
|          98|   -5.185169|   -7.092067|    0.824007|    0.012020|
|          99|   -5.184968|   -7.096057|    0.824006|    0.012021|
|         100|   -5.184920|   -7.099785|    0.824005|    0.012022|
|         101|   -5.185041|   -7.103251|    0.824003|    0.012022|
+-----------------------------------------------------------------------+
|Fixed CL Mode                           |Value                         |
+-----------------------------------------------------------------------+
|Current CL                              |0.824003                      |
|Target CL                               |0.824                         |
|Previous AOA                            |2.78037                       |
|Changed AoA by                          |-2.37839e-05                  |
+-----------------------------------------------------------------------+
+----------------------------------------------------------------+
|  Inner_Iter|    rms[Rho]|     rms[nu]|          CL|          CD|
+----------------------------------------------------------------+
|         102|   -4.782174|   -7.106422|    0.824002|    0.012022|
|         103|   -5.057587|   -7.109403|    0.824000|    0.012023|
|         104|   -5.155614|   -7.112128|    0.823998|    0.012023|
|         105|   -5.172479|   -7.114632|    0.823996|    0.012024|
|         106|   -5.177263|   -7.116935|    0.823993|    0.012024|
|         107|   -5.181052|   -7.119060|    0.823991|    0.012024|
|         108|   -5.184135|   -7.121026|    0.823988|    0.012024|
|         109|   -5.185741|   -7.122854|    0.823986|    0.012024|
|         110|   -5.185983|   -7.124561|    0.823983|    0.012024|
|         111|   -5.185555|   -7.126165|    0.823980|    0.012024|
|         112|   -5.185004|   -7.127684|    0.823977|    0.012024|
|         113|   -5.184517|   -7.129133|    0.823974|    0.012023|
|         114|   -5.184087|   -7.130528|    0.823971|    0.012023|
|         115|   -5.183661|   -7.131883|    0.823968|    0.012022|
|         116|   -5.183176|   -7.133214|    0.823965|    0.012022|
|         117|   -5.182537|   -7.134534|    0.823962|    0.012021|
|         118|   -5.181611|   -7.135860|    0.823959|    0.012021|
|         119|   -5.180260|   -7.137207|    0.823957|    0.012020|
|         120|   -5.178384|   -7.138589|    0.823954|    0.012019|
|         121|   -5.175953|   -7.140022|    0.823952|    0.012019|
|         122|   -5.173006|   -7.141522|    0.823949|    0.012018|
|         123|   -5.169618|   -7.143105|    0.823947|    0.012017|
|         124|   -5.165870|   -7.144785|    0.823945|    0.012016|
|         125|   -5.161829|   -7.146578|    0.823943|    0.012015|
|         126|   -5.157546|   -7.148498|    0.823942|    0.012015|
|         127|   -5.153061|   -7.150558|    0.823940|    0.012014|
|         128|   -5.148411|   -7.152769|    0.823939|    0.012013|
|         129|   -5.143635|   -7.155145|    0.823938|    0.012012|
|         130|   -5.138779|   -7.157693|    0.823936|    0.012011|
|         131|   -5.133890|   -7.160418|    0.823935|    0.012011|
|         132|   -5.129018|   -7.163322|    0.823934|    0.012010|
|         133|   -5.124213|   -7.166410|    0.823933|    0.012009|
|         134|   -5.119518|   -7.169682|    0.823933|    0.012008|
|         135|   -5.114971|   -7.173134|    0.823932|    0.012007|
|         136|   -5.110597|   -7.176764|    0.823931|    0.012006|
|         137|   -5.106414|   -7.180569|    0.823930|    0.012006|
|         138|   -5.102428|   -7.184543|    0.823930|    0.012005|
|         139|   -5.098636|   -7.188676|    0.823929|    0.012004|
|         140|   -5.095032|   -7.192960|    0.823928|    0.012003|
|         141|   -5.091605|   -7.197385|    0.823928|    0.012003|
|         142|   -5.088343|   -7.201939|    0.823927|    0.012002|
|         143|   -5.085233|   -7.206604|    0.823926|    0.012001|
|         144|   -5.082266|   -7.211369|    0.823926|    0.012000|
|         145|   -5.079433|   -7.216221|    0.823925|    0.012000|
|         146|   -5.076726|   -7.221150|    0.823924|    0.011999|
|         147|   -5.074138|   -7.226143|    0.823924|    0.011998|
|         148|   -5.071663|   -7.231190|    0.823923|    0.011997|
|         149|   -5.069294|   -7.236283|    0.823923|    0.011997|
|         150|   -5.067025|   -7.241413|    0.823922|    0.011996|
|         151|   -5.064849|   -7.246575|    0.823922|    0.011995|
|         152|   -5.062760|   -7.251763|    0.823922|    0.011995|
|         153|   -5.060753|   -7.256976|    0.823921|    0.011994|
|         154|   -5.058823|   -7.262221|    0.823921|    0.011993|
|         155|   -5.056967|   -7.267506|    0.823921|    0.011993|
|         156|   -5.055182|   -7.272842|    0.823921|    0.011992|
|         157|   -5.053467|   -7.278244|    0.823921|    0.011992|
|         158|   -5.051821|   -7.283727|    0.823921|    0.011991|
|         159|   -5.050244|   -7.289317|    0.823921|    0.011991|
|         160|   -5.048737|   -7.295030|    0.823922|    0.011990|
|         161|   -5.047302|   -7.300884|    0.823922|    0.011990|
|         162|   -5.045940|   -7.306899|    0.823923|    0.011989|
|         163|   -5.044652|   -7.313087|    0.823923|    0.011989|
|         164|   -5.043440|   -7.319457|    0.823924|    0.011989|
|         165|   -5.042303|   -7.326016|    0.823925|    0.011989|
|         166|   -5.041244|   -7.332770|    0.823926|    0.011988|
|         167|   -5.040262|   -7.339716|    0.823927|    0.011988|
|         168|   -5.039357|   -7.346845|    0.823928|    0.011988|
|         169|   -5.038526|   -7.354150|    0.823929|    0.011988|
|         170|   -5.037767|   -7.361618|    0.823930|    0.011988|
|         171|   -5.037076|   -7.369238|    0.823931|    0.011988|
|         172|   -5.036449|   -7.376994|    0.823932|    0.011988|
|         173|   -5.035879|   -7.384863|    0.823933|    0.011988|
|         174|   -5.035359|   -7.392825|    0.823934|    0.011988|
|         175|   -5.034882|   -7.400859|    0.823936|    0.011988|
|         176|   -5.034439|   -7.408946|    0.823937|    0.011989|
|         177|   -5.034024|   -7.417070|    0.823938|    0.011989|
|         178|   -5.033628|   -7.425215|    0.823939|    0.011989|
|         179|   -5.033246|   -7.433369|    0.823940|    0.011990|
|         180|   -5.032877|   -7.441525|    0.823941|    0.011990|
|         181|   -5.032519|   -7.449676|    0.823942|    0.011990|
|         182|   -5.032179|   -7.457818|    0.823942|    0.011991|
|         183|   -5.031863|   -7.465952|    0.823943|    0.011991|
|         184|   -5.031588|   -7.474077|    0.823944|    0.011992|
|         185|   -5.031371|   -7.482195|    0.823944|    0.011992|
|         186|   -5.031239|   -7.490309|    0.823945|    0.011993|
|         187|   -5.031220|   -7.498420|    0.823946|    0.011993|
|         188|   -5.031349|   -7.506530|    0.823946|    0.011994|
|         189|   -5.031666|   -7.514639|    0.823947|    0.011994|
|         190|   -5.032212|   -7.522747|    0.823947|    0.011995|
|         191|   -5.033030|   -7.530848|    0.823947|    0.011996|
|         192|   -5.034165|   -7.538936|    0.823947|    0.011996|
|         193|   -5.035662|   -7.547003|    0.823948|    0.011997|
|         194|   -5.037564|   -7.555039|    0.823948|    0.011998|
|         195|   -5.039909|   -7.563033|    0.823948|    0.011998|
|         196|   -5.042734|   -7.570973|    0.823948|    0.011999|
|         197|   -5.046069|   -7.578847|    0.823948|    0.012000|
|         198|   -5.049939|   -7.586635|    0.823948|    0.012000|
|         199|   -5.054359|   -7.594326|    0.823948|    0.012001|
|         200|   -5.059337|   -7.601912|    0.823948|    0.012002|
|         201|   -5.064870|   -7.609389|    0.823948|    0.012006|
+-----------------------------------------------------------------------+
|Fixed CL Mode                           |Value                         |
+-----------------------------------------------------------------------+
|Current CL                              |0.823948                      |
|Target CL                               |0.824                         |
|Previous AOA                            |2.78035                       |
|Changed AoA by                          |0.000259348                   |
+-----------------------------------------------------------------------+
+----------------------------------------------------------------+
|  Inner_Iter|    rms[Rho]|     rms[nu]|          CL|          CD|
+----------------------------------------------------------------+
|         202|   -3.778958|   -7.558098|    0.823948|    0.012007|
|         203|   -4.160775|   -7.591300|    0.823948|    0.012008|
|         204|   -4.397050|   -7.606383|    0.823948|    0.012009|
|         205|   -4.470307|   -7.617702|    0.823947|    0.012009|
|         206|   -4.520051|   -7.627683|    0.823947|    0.012010|
|         207|   -4.584627|   -7.636947|    0.823947|    0.012011|
|         208|   -4.663149|   -7.645744|    0.823947|    0.012012|
|         209|   -4.742872|   -7.654218|    0.823946|    0.012012|
|         210|   -4.809410|   -7.662447|    0.823946|    0.012013|
|         211|   -4.857064|   -7.670412|    0.823946|    0.012014|
|         212|   -4.888506|   -7.678084|    0.823945|    0.012014|
|         213|   -4.907573|   -7.685492|    0.823945|    0.012015|
|         214|   -4.917514|   -7.692719|    0.823945|    0.012016|
|         215|   -4.922654|   -7.699838|    0.823944|    0.012016|
|         216|   -4.927800|   -7.706871|    0.823944|    0.012017|
|         217|   -4.936213|   -7.713821|    0.823943|    0.012017|
|         218|   -4.948602|   -7.720692|    0.823943|    0.012018|
|         219|   -4.963537|   -7.727517|    0.823942|    0.012018|
|         220|   -4.978705|   -7.734342|    0.823941|    0.012019|
|         221|   -4.992313|   -7.741206|    0.823941|    0.012019|
|         222|   -5.003897|   -7.748116|    0.823940|    0.012020|
|         223|   -5.014094|   -7.755048|    0.823939|    0.012020|
|         224|   -5.023803|   -7.761959|    0.823939|    0.012020|
|         225|   -5.033508|   -7.768798|    0.823938|    0.012021|
|         226|   -5.043127|   -7.775509|    0.823937|    0.012021|
|         227|   -5.052244|   -7.782055|    0.823936|    0.012021|
|         228|   -5.060407|   -7.788405|    0.823935|    0.012021|
|         229|   -5.067321|   -7.794541|    0.823934|    0.012022|
|         230|   -5.072899|   -7.800440|    0.823933|    0.012022|
|         231|   -5.077261|   -7.806090|    0.823933|    0.012022|
|         232|   -5.080716|   -7.811488|    0.823932|    0.012022|
|         233|   -5.083720|   -7.816628|    0.823931|    0.012022|
|         234|   -5.086807|   -7.821497|    0.823930|    0.012022|
|         235|   -5.090479|   -7.826087|    0.823929|    0.012022|
|         236|   -5.095123|   -7.830384|    0.823928|    0.012022|
|         237|   -5.100944|   -7.834353|    0.823927|    0.012021|
|         238|   -5.107956|   -7.837954|    0.823926|    0.012021|
|         239|   -5.115992|   -7.841150|    0.823926|    0.012021|
|         240|   -5.124740|   -7.843905|    0.823925|    0.012021|
|         241|   -5.133799|   -7.846183|    0.823924|    0.012021|
|         242|   -5.142759|   -7.847957|    0.823924|    0.012020|
|         243|   -5.151284|   -7.849203|    0.823923|    0.012020|
|         244|   -5.159194|   -7.849902|    0.823922|    0.012020|
|         245|   -5.166496|   -7.850044|    0.823922|    0.012019|
|         246|   -5.173372|   -7.849625|    0.823922|    0.012019|
|         247|   -5.180106|   -7.848652|    0.823921|    0.012019|
|         248|   -5.187001|   -7.847140|    0.823921|    0.012018|
|         249|   -5.194300|   -7.845118|    0.823921|    0.012018|
|         250|   -5.202135|   -7.842618|    0.823921|    0.012017|
|         251|   -5.210510|   -7.839697|    0.823921|    0.012017|
|         252|   -5.219319|   -7.836423|    0.823921|    0.012016|
|         253|   -5.228380|   -7.832879|    0.823922|    0.012016|
|         254|   -5.237483|   -7.829144|    0.823922|    0.012016|
|         255|   -5.246436|   -7.825309|    0.823923|    0.012015|
|         256|   -5.255096|   -7.821476|    0.823924|    0.012015|
|         257|   -5.263390|   -7.817746|    0.823924|    0.012014|
|         258|   -5.271311|   -7.814221|    0.823925|    0.012014|
|         259|   -5.278907|   -7.811001|    0.823927|    0.012013|
|         260|   -5.286248|   -7.808182|    0.823928|    0.012013|
|         261|   -5.293407|   -7.805856|    0.823929|    0.012012|
|         262|   -5.300443|   -7.804107|    0.823931|    0.012012|
|         263|   -5.307386|   -7.803014|    0.823933|    0.012012|
|         264|   -5.314240|   -7.802643|    0.823935|    0.012011|
|         265|   -5.320986|   -7.803049|    0.823936|    0.012011|
|         266|   -5.327592|   -7.804277|    0.823939|    0.012010|
|         267|   -5.334021|   -7.806359|    0.823941|    0.012010|
|         268|   -5.340234|   -7.809308|    0.823943|    0.012010|
|         269|   -5.346200|   -7.813122|    0.823945|    0.012009|
|         270|   -5.351889|   -7.817779|    0.823948|    0.012009|
|         271|   -5.357277|   -7.823232|    0.823950|    0.012009|
|         272|   -5.362342|   -7.829408|    0.823952|    0.012009|
|         273|   -5.367063|   -7.836205|    0.823955|    0.012008|
|         274|   -5.371419|   -7.843485|    0.823957|    0.012008|
|         275|   -5.375390|   -7.851077|    0.823960|    0.012008|
|         276|   -5.378959|   -7.858770|    0.823962|    0.012008|
|         277|   -5.382113|   -7.866323|    0.823964|    0.012007|
|         278|   -5.384846|   -7.873465|    0.823966|    0.012007|
|         279|   -5.387160|   -7.879911|    0.823969|    0.012007|
|         280|   -5.389063|   -7.885379|    0.823971|    0.012007|
|         281|   -5.390573|   -7.889607|    0.823973|    0.012007|
|         282|   -5.391717|   -7.892384|    0.823975|    0.012006|
|         283|   -5.392526|   -7.893565|    0.823976|    0.012006|
|         284|   -5.393039|   -7.893094|    0.823978|    0.012006|
|         285|   -5.393296|   -7.891008|    0.823980|    0.012006|
|         286|   -5.393341|   -7.887433|    0.823981|    0.012006|
|         287|   -5.393219|   -7.882571|    0.823982|    0.012006|
|         288|   -5.392972|   -7.876678|    0.823983|    0.012006|
|         289|   -5.392643|   -7.870040|    0.823985|    0.012006|
|         290|   -5.392272|   -7.862951|    0.823985|    0.012006|
|         291|   -5.391895|   -7.855694|    0.823986|    0.012006|
|         292|   -5.391544|   -7.848528|    0.823987|    0.012006|
|         293|   -5.391249|   -7.841681|    0.823987|    0.012006|
|         294|   -5.391034|   -7.835342|    0.823988|    0.012006|
|         295|   -5.390920|   -7.829666|    0.823988|    0.012006|
|         296|   -5.390924|   -7.824773|    0.823988|    0.012007|
|         297|   -5.391060|   -7.820753|    0.823988|    0.012007|
|         298|   -5.391339|   -7.817666|    0.823988|    0.012007|
|         299|   -5.391769|   -7.815547|    0.823988|    0.012007|
|         300|   -5.392356|   -7.814410|    0.823988|    0.012007|
|         301|   -5.393106|   -7.814248|    0.823988|    0.012008|
+-----------------------------------------------------------------------+
|Fixed CL Mode                           |Value                         |
+-----------------------------------------------------------------------+
|Current CL                              |0.823988                      |
|Target CL                               |0.824                         |
|Previous AOA                            |2.78061                       |
|Changed AoA by                          |5.89946e-05                   |
+-----------------------------------------------------------------------+
+----------------------------------------------------------------+
|  Inner_Iter|    rms[Rho]|     rms[nu]|          CL|          CD|
+----------------------------------------------------------------+
|         302|   -4.419999|   -7.806064|    0.823988|    0.012008|
|         303|   -4.791033|   -7.812109|    0.823987|    0.012009|
|         304|   -5.002686|   -7.816087|    0.823987|    0.012009|
|         305|   -5.062517|   -7.820229|    0.823987|    0.012009|
|         306|   -5.101896|   -7.824793|    0.823986|    0.012009|
|         307|   -5.150506|   -7.829782|    0.823986|    0.012010|
|         308|   -5.204942|   -7.835147|    0.823985|    0.012010|
|         309|   -5.254760|   -7.840822|    0.823984|    0.012010|
|         310|   -5.292622|   -7.846721|    0.823984|    0.012010|
|         311|   -5.318612|   -7.852738|    0.823983|    0.012011|
|         312|   -5.336201|   -7.858756|    0.823983|    0.012011|
|         313|   -5.347974|   -7.864659|    0.823982|    0.012011|
|         314|   -5.355527|   -7.870338|    0.823981|    0.012012|
|         315|   -5.360641|   -7.875691|    0.823981|    0.012012|
|         316|   -5.365307|   -7.880622|    0.823980|    0.012012|
|         317|   -5.370991|   -7.885051|    0.823980|    0.012012|
|         318|   -5.378167|   -7.888925|    0.823979|    0.012013|
|         319|   -5.386470|   -7.892220|    0.823979|    0.012013|
|         320|   -5.395224|   -7.894940|    0.823978|    0.012013|
|         321|   -5.403951|   -7.897115|    0.823978|    0.012013|
|         322|   -5.412581|   -7.898793|    0.823977|    0.012014|
|         323|   -5.421304|   -7.900040|    0.823977|    0.012014|
|         324|   -5.430299|   -7.900931|    0.823977|    0.012014|
|         325|   -5.439546|   -7.901551|    0.823976|    0.012014|
|         326|   -5.448820|   -7.901993|    0.823976|    0.012015|
|         327|   -5.457803|   -7.902351|    0.823976|    0.012015|
|         328|   -5.466210|   -7.902719|    0.823975|    0.012015|
|         329|   -5.473865|   -7.903187|    0.823975|    0.012015|
|         330|   -5.480716|   -7.903839|    0.823975|    0.012015|
|         331|   -5.486818|   -7.904745|    0.823975|    0.012016|
|         332|   -5.492303|   -7.905972|    0.823975|    0.012016|
|         333|   -5.497351|   -7.907567|    0.823975|    0.012016|
|         334|   -5.502145|   -7.909572|    0.823974|    0.012016|
|         335|   -5.506833|   -7.912012|    0.823974|    0.012016|
|         336|   -5.511490|   -7.914903|    0.823974|    0.012016|
|         337|   -5.516102|   -7.918251|    0.823974|    0.012016|
|         338|   -5.520576|   -7.922051|    0.823974|    0.012016|
|         339|   -5.524756|   -7.926296|    0.823974|    0.012017|
|         340|   -5.528461|   -7.930968|    0.823974|    0.012017|
|         341|   -5.531513|   -7.936041|    0.823974|    0.012017|
|         342|   -5.533782|   -7.941488|    0.823974|    0.012017|
|         343|   -5.535206|   -7.947273|    0.823974|    0.012017|
|         344|   -5.535808|   -7.953360|    0.823974|    0.012017|
|         345|   -5.535685|   -7.959708|    0.823973|    0.012017|
|         346|   -5.534987|   -7.966269|    0.823973|    0.012017|
|         347|   -5.533885|   -7.972991|    0.823973|    0.012016|
|         348|   -5.532535|   -7.979819|    0.823973|    0.012016|
|         349|   -5.531060|   -7.986688|    0.823973|    0.012016|
|         350|   -5.529543|   -7.993529|    0.823973|    0.012016|
|         351|   -5.528024|   -8.000267|    0.823973|    0.012016|
|         352|   -5.526519|   -8.006820|    0.823972|    0.012016|
|         353|   -5.525030|   -8.013100|    0.823972|    0.012016|
|         354|   -5.523558|   -8.019017|    0.823972|    0.012016|
|         355|   -5.522115|   -8.024479|    0.823972|    0.012015|
|         356|   -5.520724|   -8.029393|    0.823972|    0.012015|
|         357|   -5.519421|   -8.033671|    0.823972|    0.012015|
|         358|   -5.518253|   -8.037236|    0.823971|    0.012015|
|         359|   -5.517267|   -8.040019|    0.823971|    0.012015|
|         360|   -5.516509|   -8.041975|    0.823971|    0.012015|
|         361|   -5.516020|   -8.043079|    0.823971|    0.012014|
|         362|   -5.515834|   -8.043332|    0.823971|    0.012014|
|         363|   -5.515975|   -8.042760|    0.823971|    0.012014|
|         364|   -5.516460|   -8.041417|    0.823971|    0.012014|
|         365|   -5.517302|   -8.039381|    0.823971|    0.012013|
|         366|   -5.518511|   -8.036752|    0.823971|    0.012013|
|         367|   -5.520092|   -8.033646|    0.823971|    0.012013|
|         368|   -5.522050|   -8.030191|    0.823971|    0.012013|
|         369|   -5.524390|   -8.026523|    0.823972|    0.012013|
|         370|   -5.527115|   -8.022776|    0.823972|    0.012012|
|         371|   -5.530225|   -8.019084|    0.823972|    0.012012|
|         372|   -5.533722|   -8.015571|    0.823972|    0.012012|
|         373|   -5.537602|   -8.012353|    0.823973|    0.012012|
|         374|   -5.541861|   -8.009533|    0.823973|    0.012011|
|         375|   -5.546492|   -8.007198|    0.823974|    0.012011|
|         376|   -5.551485|   -8.005423|    0.823974|    0.012011|
|         377|   -5.556826|   -8.004266|    0.823974|    0.012011|
|         378|   -5.562499|   -8.003769|    0.823975|    0.012011|
|         379|   -5.568486|   -8.003959|    0.823976|    0.012011|
|         380|   -5.574764|   -8.004848|    0.823976|    0.012011|
|         381|   -5.581308|   -8.006430|    0.823977|    0.012010|
|         382|   -5.588089|   -8.008685|    0.823977|    0.012010|
|         383|   -5.595075|   -8.011577|    0.823978|    0.012010|
|         384|   -5.602231|   -8.015054|    0.823979|    0.012010|
|         385|   -5.609518|   -8.019051|    0.823979|    0.012010|
|         386|   -5.616893|   -8.023487|    0.823980|    0.012010|
|         387|   -5.624310|   -8.028270|    0.823981|    0.012010|
|         388|   -5.631722|   -8.033299|    0.823982|    0.012010|
|         389|   -5.639077|   -8.038467|    0.823982|    0.012010|
|         390|   -5.646322|   -8.043660|    0.823983|    0.012010|
|         391|   -5.653403|   -8.048764|    0.823984|    0.012010|
|         392|   -5.660264|   -8.053671|    0.823985|    0.012010|
|         393|   -5.666852|   -8.058279|    0.823985|    0.012010|
|         394|   -5.673113|   -8.062508|    0.823986|    0.012010|
|         395|   -5.678996|   -8.066295|    0.823987|    0.012010|
|         396|   -5.684454|   -8.069601|    0.823987|    0.012010|
|         397|   -5.689445|   -8.072411|    0.823988|    0.012010|
|         398|   -5.693932|   -8.074738|    0.823989|    0.012010|
|         399|   -5.697885|   -8.076619|    0.823990|    0.012010|
|         400|   -5.701284|   -8.078111|    0.823990|    0.012010|
|         401|   -5.704114|   -8.079286|    0.823991|    0.012011|
+-----------------------------------------------------------------------+
|Fixed CL Mode                           |Value                         |
+-----------------------------------------------------------------------+
|Current CL                              |0.823991                      |
|Target CL                               |0.824                         |
|Previous AOA                            |2.78066                       |
|Changed AoA by                          |4.89217e-05                   |
+-----------------------------------------------------------------------+
+----------------------------------------------------------------+
|  Inner_Iter|    rms[Rho]|     rms[nu]|          CL|          CD|
+----------------------------------------------------------------+
|         402|   -4.503480|   -8.062221|    0.823992|    0.012011|
|         403|   -4.885950|   -8.072356|    0.823992|    0.012011|
|         404|   -5.122795|   -8.075931|    0.823993|    0.012011|
|         405|   -5.194304|   -8.078248|    0.823993|    0.012012|
|         406|   -5.240751|   -8.080174|    0.823994|    0.012012|
|         407|   -5.300188|   -8.081961|    0.823995|    0.012012|
|         408|   -5.370570|   -8.083742|    0.823995|    0.012012|
|         409|   -5.438521|   -8.085615|    0.823996|    0.012012|
|         410|   -5.491114|   -8.087657|    0.823996|    0.012012|
|         411|   -5.525380|   -8.089911|    0.823997|    0.012013|
|         412|   -5.545646|   -8.092407|    0.823997|    0.012013|
|         413|   -5.556257|   -8.095169|    0.823998|    0.012013|
|         414|   -5.560319|   -8.098217|    0.823998|    0.012013|
|         415|   -5.561149|   -8.101547|    0.823999|    0.012013|
|         416|   -5.562065|   -8.105125|    0.823999|    0.012013|
|         417|   -5.565167|   -8.108899|    0.824000|    0.012013|
|         418|   -5.570782|   -8.112808|    0.824000|    0.012014|
|         419|   -5.577889|   -8.116790|    0.824000|    0.012014|
|         420|   -5.585072|   -8.120780|    0.824001|    0.012014|
|         421|   -5.591404|   -8.124710|    0.824001|    0.012014|
|         422|   -5.596788|   -8.128508|    0.824002|    0.012014|
|         423|   -5.601685|   -8.132102|    0.824002|    0.012014|
|         424|   -5.606601|   -8.135425|    0.824003|    0.012014|
|         425|   -5.611749|   -8.138420|    0.824003|    0.012015|
|         426|   -5.617015|   -8.141040|    0.824003|    0.012015|
|         427|   -5.622116|   -8.143258|    0.824004|    0.012015|
|         428|   -5.626781|   -8.145063|    0.824004|    0.012015|
|         429|   -5.630850|   -8.146466|    0.824004|    0.012015|
|         430|   -5.634297|   -8.147483|    0.824005|    0.012015|
|         431|   -5.637218|   -8.148149|    0.824005|    0.012015|
|         432|   -5.639812|   -8.148509|    0.824006|    0.012015|
|         433|   -5.642346|   -8.148615|    0.824006|    0.012015|
|         434|   -5.645117|   -8.148524|    0.824006|    0.012015|
|         435|   -5.648389|   -8.148291|    0.824006|    0.012015|
|         436|   -5.652350|   -8.147972|    0.824007|    0.012015|
|         437|   -5.657083|   -8.147618|    0.824007|    0.012016|
|         438|   -5.662561|   -8.147276|    0.824007|    0.012016|
|         439|   -5.668661|   -8.146991|    0.824008|    0.012016|
|         440|   -5.675191|   -8.146801|    0.824008|    0.012016|
|         441|   -5.681925|   -8.146740|    0.824008|    0.012016|
|         442|   -5.688644|   -8.146837|    0.824008|    0.012016|
|         443|   -5.695180|   -8.147115|    0.824008|    0.012015|
|         444|   -5.701443|   -8.147591|    0.824009|    0.012015|
|         445|   -5.707432|   -8.148277|    0.824009|    0.012015|
|         446|   -5.713221|   -8.149178|    0.824009|    0.012015|
|         447|   -5.718927|   -8.150291|    0.824009|    0.012015|
|         448|   -5.724666|   -8.151605|    0.824009|    0.012015|
|         449|   -5.730520|   -8.153102|    0.824009|    0.012015|
|         450|   -5.736515|   -8.154756|    0.824009|    0.012015|
|         451|   -5.742613|   -8.156533|    0.824009|    0.012015|
|         452|   -5.748725|   -8.158394|    0.824010|    0.012015|
|         453|   -5.754729|   -8.160293|    0.824010|    0.012015|
|         454|   -5.760490|   -8.162180|    0.824010|    0.012015|
|         455|   -5.765888|   -8.164006|    0.824010|    0.012014|
|         456|   -5.770829|   -8.165715|    0.824010|    0.012014|
|         457|   -5.775254|   -8.167262|    0.824010|    0.012014|
|         458|   -5.779139|   -8.168601|    0.824010|    0.012014|
|         459|   -5.782484|   -8.169695|    0.824010|    0.012014|
|         460|   -5.785308|   -8.170515|    0.824010|    0.012014|
|         461|   -5.787637|   -8.171043|    0.824011|    0.012014|
|         462|   -5.789498|   -8.171276|    0.824011|    0.012013|
|         463|   -5.790915|   -8.171222|    0.824011|    0.012013|
|         464|   -5.791912|   -8.170904|    0.824011|    0.012013|
|         465|   -5.792512|   -8.170355|    0.824011|    0.012013|
|         466|   -5.792738|   -8.169619|    0.824012|    0.012013|
|         467|   -5.792622|   -8.168749|    0.824012|    0.012012|
|         468|   -5.792197|   -8.167805|    0.824012|    0.012012|
|         469|   -5.791505|   -8.166848|    0.824012|    0.012012|
|         470|   -5.790589|   -8.165942|    0.824013|    0.012012|
|         471|   -5.789496|   -8.165148|    0.824013|    0.012012|
|         472|   -5.788272|   -8.164522|    0.824013|    0.012012|
|         473|   -5.786963|   -8.164117|    0.824014|    0.012011|
|         474|   -5.785614|   -8.163976|    0.824014|    0.012011|
|         475|   -5.784264|   -8.164134|    0.824014|    0.012011|
|         476|   -5.782953|   -8.164617|    0.824015|    0.012011|
|         477|   -5.781717|   -8.165441|    0.824015|    0.012011|
|         478|   -5.780589|   -8.166613|    0.824015|    0.012010|
|         479|   -5.779599|   -8.168130|    0.824016|    0.012010|
|         480|   -5.778773|   -8.169978|    0.824016|    0.012010|
|         481|   -5.778139|   -8.172136|    0.824016|    0.012010|
|         482|   -5.777717|   -8.174574|    0.824017|    0.012010|
|         483|   -5.777528|   -8.177258|    0.824017|    0.012010|
|         484|   -5.777589|   -8.180144|    0.824017|    0.012010|
|         485|   -5.777916|   -8.183187|    0.824017|    0.012010|
|         486|   -5.778520|   -8.186338|    0.824018|    0.012009|
|         487|   -5.779413|   -8.189550|    0.824018|    0.012009|
|         488|   -5.780603|   -8.192773|    0.824018|    0.012009|
|         489|   -5.782096|   -8.195963|    0.824019|    0.012009|
|         490|   -5.783897|   -8.199080|    0.824019|    0.012009|
|         491|   -5.786008|   -8.202090|    0.824019|    0.012009|
|         492|   -5.788429|   -8.204967|    0.824019|    0.012009|
|         493|   -5.791157|   -8.207692|    0.824020|    0.012009|
|         494|   -5.794188|   -8.210257|    0.824020|    0.012009|
|         495|   -5.797515|   -8.212661|    0.824020|    0.012009|
|         496|   -5.801127|   -8.214912|    0.824020|    0.012009|
|         497|   -5.805012|   -8.217026|    0.824020|    0.012009|
|         498|   -5.809152|   -8.219023|    0.824021|    0.012009|
|         499|   -5.813530|   -8.220931|    0.824021|    0.012009|
|         500|   -5.818119|   -8.222779|    0.824021|    0.012009|
|         501|   -5.822895|   -8.224598|    0.824021|    0.012008|
+-----------------------------------------------------------------------+
|Fixed CL Mode                           |Value                         |
+-----------------------------------------------------------------------+
|Current CL                              |0.824021                      |
|Target CL                               |0.824                         |
|Previous AOA                            |2.78071                       |
|Changed AoA by                          |-0.000105085                  |
+-----------------------------------------------------------------------+
+----------------------------------------------------------------+
|  Inner_Iter|    rms[Rho]|     rms[nu]|          CL|          CD|
+----------------------------------------------------------------+
|         502|   -4.171614|   -8.095924|    0.824021|    0.012008|
|         503|   -4.554913|   -8.153279|    0.824022|    0.012008|
|         504|   -4.796596|   -8.174222|    0.824022|    0.012008|
|         505|   -4.874907|   -8.186967|    0.824022|    0.012008|
|         506|   -4.928713|   -8.196736|    0.824022|    0.012008|
|         507|   -4.998222|   -8.204889|    0.824022|    0.012008|
|         508|   -5.083702|   -8.211942|    0.824022|    0.012008|
|         509|   -5.172428|   -8.218220|    0.824023|    0.012009|
|         510|   -5.248195|   -8.223914|    0.824023|    0.012009|
|         511|   -5.303056|   -8.229063|    0.824023|    0.012009|
|         512|   -5.338876|   -8.233687|    0.824023|    0.012009|
|         513|   -5.359577|   -8.237934|    0.824023|    0.012009|
|         514|   -5.368963|   -8.242028|    0.824024|    0.012009|
|         515|   -5.372632|   -8.246117|    0.824024|    0.012010|
|         516|   -5.376857|   -8.250229|    0.824024|    0.012010|
|         517|   -5.385831|   -8.254305|    0.824024|    0.012010|
|         518|   -5.400497|   -8.258301|    0.824024|    0.012010|
|         519|   -5.419098|   -8.262224|    0.824024|    0.012010|
|         520|   -5.438634|   -8.266126|    0.824025|    0.012011|
|         521|   -5.456610|   -8.270044|    0.824025|    0.012011|
|         522|   -5.472217|   -8.273980|    0.824025|    0.012011|
|         523|   -5.486206|   -8.277880|    0.824025|    0.012011|
|         524|   -5.499808|   -8.281668|    0.824025|    0.012011|
|         525|   -5.513755|   -8.285267|    0.824026|    0.012012|
|         526|   -5.527979|   -8.288622|    0.824026|    0.012012|
|         527|   -5.541867|   -8.291683|    0.824026|    0.012012|
|         528|   -5.554655|   -8.294420|    0.824026|    0.012012|
|         529|   -5.565717|   -8.296812|    0.824027|    0.012012|
|         530|   -5.574685|   -8.298840|    0.824027|    0.012013|
|         531|   -5.581503|   -8.300492|    0.824027|    0.012013|
|         532|   -5.586449|   -8.301758|    0.824027|    0.012013|
|         533|   -5.590112|   -8.302624|    0.824027|    0.012013|
|         534|   -5.593273|   -8.303077|    0.824027|    0.012013|
|         535|   -5.596721|   -8.303101|    0.824028|    0.012013|
|         536|   -5.601087|   -8.302682|    0.824028|    0.012014|
|         537|   -5.606738|   -8.301815|    0.824028|    0.012014|
|         538|   -5.613739|   -8.300503|    0.824028|    0.012014|
|         539|   -5.621873|   -8.298762|    0.824028|    0.012014|
|         540|   -5.630692|   -8.296616|    0.824028|    0.012014|
|         541|   -5.639606|   -8.294104|    0.824028|    0.012014|
|         542|   -5.648007|   -8.291283|    0.824028|    0.012014|
|         543|   -5.655422|   -8.288213|    0.824028|    0.012014|
|         544|   -5.661645|   -8.284968|    0.824028|    0.012014|
|         545|   -5.666790|   -8.281624|    0.824028|    0.012014|
|         546|   -5.671247|   -8.278257|    0.824028|    0.012015|
|         547|   -5.675555|   -8.274941|    0.824027|    0.012015|
|         548|   -5.680251|   -8.271744|    0.824027|    0.012015|
|         549|   -5.685752|   -8.268729|    0.824027|    0.012015|
|         550|   -5.692283|   -8.265958|    0.824027|    0.012015|
|         551|   -5.699873|   -8.263483|    0.824026|    0.012014|
|         552|   -5.708375|   -8.261356|    0.824026|    0.012014|
|         553|   -5.717534|   -8.259632|    0.824025|    0.012014|
|         554|   -5.727048|   -8.258350|    0.824025|    0.012014|
|         555|   -5.736637|   -8.257552|    0.824024|    0.012014|
|         556|   -5.746094|   -8.257283|    0.824024|    0.012014|
|         557|   -5.755311|   -8.257587|    0.824023|    0.012014|
|         558|   -5.764281|   -8.258504|    0.824023|    0.012014|
|         559|   -5.773071|   -8.260074|    0.824022|    0.012014|
|         560|   -5.781789|   -8.262330|    0.824021|    0.012014|
|         561|   -5.790542|   -8.265302|    0.824020|    0.012013|
|         562|   -5.799416|   -8.269012|    0.824020|    0.012013|
|         563|   -5.808451|   -8.273474|    0.824019|    0.012013|
|         564|   -5.817646|   -8.278690|    0.824018|    0.012013|
|         565|   -5.826961|   -8.284651|    0.824017|    0.012013|
|         566|   -5.836335|   -8.291328|    0.824016|    0.012012|
|         567|   -5.845689|   -8.298673|    0.824015|    0.012012|
|         568|   -5.854947|   -8.306615|    0.824014|    0.012012|
|         569|   -5.864035|   -8.315053|    0.824013|    0.012012|
|         570|   -5.872885|   -8.323855|    0.824013|    0.012011|
|         571|   -5.881437|   -8.332850|    0.824012|    0.012011|
|         572|   -5.889629|   -8.341834|    0.824011|    0.012011|
|         573|   -5.897405|   -8.350563|    0.824010|    0.012011|
|         574|   -5.904705|   -8.358764|    0.824010|    0.012010|
|         575|   -5.911472|   -8.366148|    0.824009|    0.012010|
|         576|   -5.917651|   -8.372419|    0.824008|    0.012010|
|         577|   -5.923197|   -8.377307|    0.824008|    0.012010|
|         578|   -5.928075|   -8.380590|    0.824007|    0.012009|
|         579|   -5.932269|   -8.382116|    0.824007|    0.012009|
|         580|   -5.935775|   -8.381827|    0.824006|    0.012009|
|         581|   -5.938612|   -8.379768|    0.824006|    0.012009|
|         582|   -5.940814|   -8.376080|    0.824006|    0.012009|
|         583|   -5.942432|   -8.370991|    0.824006|    0.012008|
|         584|   -5.943528|   -8.364786|    0.824006|    0.012008|
|         585|   -5.944175|   -8.357786|    0.824006|    0.012008|
|         586|   -5.944453|   -8.350319|    0.824006|    0.012008|
|         587|   -5.944447|   -8.342704|    0.824006|    0.012008|
|         588|   -5.944242|   -8.335232|    0.824006|    0.012007|
|         589|   -5.943920|   -8.328160|    0.824007|    0.012007|
|         590|   -5.943562|   -8.321706|    0.824007|    0.012007|
|         591|   -5.943243|   -8.316052|    0.824008|    0.012007|
|         592|   -5.943031|   -8.311341|    0.824008|    0.012007|
|         593|   -5.942990|   -8.307684|    0.824009|    0.012007|
|         594|   -5.943173|   -8.305167|    0.824009|    0.012006|
|         595|   -5.943628|   -8.303845|    0.824010|    0.012006|
|         596|   -5.944393|   -8.303755|    0.824011|    0.012006|
|         597|   -5.945501|   -8.304910|    0.824011|    0.012006|
|         598|   -5.946976|   -8.307306|    0.824012|    0.012006|
|         599|   -5.948839|   -8.310922|    0.824013|    0.012006|
|         600|   -5.951101|   -8.315717|    0.824014|    0.012006|
|         601|   -5.953771|   -8.321635|    0.824015|    0.012005|
+-----------------------------------------------------------------------+
|Fixed CL Mode                           |Value                         |
+-----------------------------------------------------------------------+
|Current CL                              |0.824015                      |
|Target CL                               |0.824                         |
|Previous AOA                            |2.78061                       |
|Changed AoA by                          |-6.91309e-05                  |
+-----------------------------------------------------------------------+
+----------------------------------------------------------------+
|  Inner_Iter|    rms[Rho]|     rms[nu]|          CL|          CD|
+----------------------------------------------------------------+
|         602|   -4.353452|   -8.229202|    0.824016|    0.012005|
|         603|   -4.735861|   -8.279395|    0.824016|    0.012005|
|         604|   -4.974430|   -8.302092|    0.824017|    0.012005|
|         605|   -5.050610|   -8.319320|    0.824018|    0.012005|
|         606|   -5.103359|   -8.334796|    0.824019|    0.012005|
|         607|   -5.171837|   -8.349327|    0.824020|    0.012005|
|         608|   -5.256085|   -8.363113|    0.824021|    0.012005|
|         609|   -5.343827|   -8.376230|    0.824022|    0.012005|
|         610|   -5.419811|   -8.388640|    0.824023|    0.012005|
|         611|   -5.476601|   -8.400149|    0.824024|    0.012005|
|         612|   -5.515598|   -8.410535|    0.824024|    0.012005|
|         613|   -5.539829|   -8.419705|    0.824025|    0.012005|
|         614|   -5.552270|   -8.427663|    0.824026|    0.012006|
|         615|   -5.558106|   -8.434410|    0.824027|    0.012006|
|         616|   -5.563700|   -8.439870|    0.824028|    0.012006|
|         617|   -5.573592|   -8.443942|    0.824028|    0.012006|
|         618|   -5.589079|   -8.446599|    0.824029|    0.012006|
|         619|   -5.608696|   -8.447931|    0.824030|    0.012006|
|         620|   -5.629663|   -8.448111|    0.824030|    0.012006|
|         621|   -5.649627|   -8.447331|    0.824031|    0.012006|
|         622|   -5.667833|   -8.445757|    0.824031|    0.012007|
|         623|   -5.685011|   -8.443509|    0.824032|    0.012007|
|         624|   -5.702313|   -8.440680|    0.824032|    0.012007|
|         625|   -5.720315|   -8.437392|    0.824032|    0.012007|
|         626|   -5.738697|   -8.433761|    0.824033|    0.012007|
|         627|   -5.756503|   -8.429917|    0.824033|    0.012007|
|         628|   -5.772609|   -8.425989|    0.824033|    0.012008|
|         629|   -5.786109|   -8.422101|    0.824034|    0.012008|
|         630|   -5.796517|   -8.418360|    0.824034|    0.012008|
|         631|   -5.803849|   -8.414865|    0.824034|    0.012008|
|         632|   -5.808607|   -8.411678|    0.824034|    0.012008|
|         633|   -5.811684|   -8.408842|    0.824034|    0.012009|
|         634|   -5.814144|   -8.406380|    0.824034|    0.012009|
|         635|   -5.816983|   -8.404292|    0.824034|    0.012009|
|         636|   -5.820925|   -8.402565|    0.824034|    0.012009|
|         637|   -5.826327|   -8.401174|    0.824034|    0.012009|
|         638|   -5.833160|   -8.400092|    0.824034|    0.012009|
|         639|   -5.841062|   -8.399284|    0.824033|    0.012010|
|         640|   -5.849410|   -8.398720|    0.824033|    0.012010|
|         641|   -5.857444|   -8.398373|    0.824033|    0.012010|
|         642|   -5.864434|   -8.398225|    0.824033|    0.012010|
|         643|   -5.869870|   -8.398264|    0.824032|    0.012010|
|         644|   -5.873607|   -8.398483|    0.824032|    0.012010|
|         645|   -5.875902|   -8.398880|    0.824032|    0.012011|
|         646|   -5.877322|   -8.399454|    0.824031|    0.012011|
|         647|   -5.878565|   -8.400206|    0.824031|    0.012011|
|         648|   -5.880280|   -8.401138|    0.824030|    0.012011|
|         649|   -5.882939|   -8.402249|    0.824030|    0.012011|
|         650|   -5.886780|   -8.403534|    0.824029|    0.012011|
|         651|   -5.891817|   -8.404989|    0.824029|    0.012011|
|         652|   -5.897888|   -8.406599|    0.824028|    0.012011|
|         653|   -5.904723|   -8.408354|    0.824028|    0.012011|
|         654|   -5.912026|   -8.410242|    0.824027|    0.012012|
|         655|   -5.919539|   -8.412239|    0.824027|    0.012012|
|         656|   -5.927089|   -8.414324|    0.824026|    0.012012|
|         657|   -5.934613|   -8.416477|    0.824025|    0.012012|
|         658|   -5.942147|   -8.418679|    0.824025|    0.012012|
|         659|   -5.949798|   -8.420911|    0.824024|    0.012012|
|         660|   -5.957707|   -8.423159|    0.824023|    0.012012|
|         661|   -5.966010|   -8.425409|    0.824023|    0.012012|
|         662|   -5.974819|   -8.427651|    0.824022|    0.012012|
|         663|   -5.984199|   -8.429882|    0.824021|    0.012012|
|         664|   -5.994178|   -8.432103|    0.824021|    0.012012|
|         665|   -6.004744|   -8.434321|    0.824020|    0.012012|
|         666|   -6.015865|   -8.436551|    0.824019|    0.012012|
|         667|   -6.027493|   -8.438811|    0.824018|    0.012012|
|         668|   -6.039579|   -8.441125|    0.824018|    0.012012|
|         669|   -6.052072|   -8.443520|    0.824017|    0.012012|
|         670|   -6.064922|   -8.446024|    0.824016|    0.012012|
|         671|   -6.078077|   -8.448664|    0.824015|    0.012012|
|         672|   -6.091478|   -8.451464|    0.824015|    0.012011|
|         673|   -6.105051|   -8.454440|    0.824014|    0.012011|
|         674|   -6.118705|   -8.457600|    0.824013|    0.012011|
|         675|   -6.132330|   -8.460941|    0.824013|    0.012011|
|         676|   -6.145796|   -8.464444|    0.824012|    0.012011|
|         677|   -6.158955|   -8.468076|    0.824012|    0.012011|
|         678|   -6.171646|   -8.471785|    0.824011|    0.012011|
|         679|   -6.183704|   -8.475505|    0.824011|    0.012011|
|         680|   -6.194964|   -8.479154|    0.824010|    0.012011|
|         681|   -6.205273|   -8.482636|    0.824010|    0.012011|
|         682|   -6.214499|   -8.485848|    0.824009|    0.012010|
|         683|   -6.222537|   -8.488685|    0.824009|    0.012010|
|         684|   -6.229321|   -8.491043|    0.824009|    0.012010|
|         685|   -6.234824|   -8.492835|    0.824008|    0.012010|
|         686|   -6.239065|   -8.493990|    0.824008|    0.012010|
|         687|   -6.242099|   -8.494465|    0.824008|    0.012010|
|         688|   -6.244022|   -8.494253|    0.824008|    0.012010|
|         689|   -6.244957|   -8.493380|    0.824008|    0.012009|
|         690|   -6.245045|   -8.491908|    0.824008|    0.012009|
|         691|   -6.244441|   -8.489935|    0.824008|    0.012009|
|         692|   -6.243302|   -8.487584|    0.824008|    0.012009|
|         693|   -6.241781|   -8.484999|    0.824008|    0.012009|
|         694|   -6.240019|   -8.482335|    0.824008|    0.012009|
|         695|   -6.238146|   -8.479751|    0.824008|    0.012009|
|         696|   -6.236278|   -8.477406|    0.824009|    0.012009|
|         697|   -6.234512|   -8.475446|    0.824009|    0.012008|
|         698|   -6.232932|   -8.474009|    0.824009|    0.012008|
|         699|   -6.231605|   -8.473213|    0.824010|    0.012008|
|         700|   -6.230588|   -8.473156|    0.824010|    0.012008|
|         701|   -6.229923|   -8.473918|    0.824010|    0.012007|
+-----------------------------------------------------------------------+
|Fixed CL Mode                           |Value                         |
+-----------------------------------------------------------------------+
|Current CL                              |0.82401                       |
|Target CL                               |0.824                         |
|Previous AOA                            |2.78054                       |
|Changed AoA by                          |-4.96237e-05                  |
+-----------------------------------------------------------------------+
+----------------------------------------------------------------+
|  Inner_Iter|    rms[Rho]|     rms[nu]|          CL|          CD|
+----------------------------------------------------------------+
|         702|   -4.497528|   -8.374900|    0.824011|    0.012007|
|         703|   -4.879921|   -8.421239|    0.824011|    0.012007|
|         704|   -5.117748|   -8.439370|    0.824012|    0.012007|
|         705|   -5.193175|   -8.452022|    0.824012|    0.012007|
|         706|   -5.245676|   -8.463126|    0.824013|    0.012007|
|         707|   -5.314272|   -8.473635|    0.824013|    0.012007|
|         708|   -5.399119|   -8.483875|    0.824014|    0.012007|
|         709|   -5.488268|   -8.494017|    0.824014|    0.012006|
|         710|   -5.566661|   -8.504103|    0.824015|    0.012006|
|         711|   -5.626524|   -8.513998|    0.824015|    0.012006|
|         712|   -5.668585|   -8.523507|    0.824016|    0.012006|
|         713|   -5.695232|   -8.532507|    0.824016|    0.012006|
|         714|   -5.709071|   -8.540905|    0.824017|    0.012006|
|         715|   -5.715403|   -8.548582|    0.824017|    0.012006|
|         716|   -5.721045|   -8.555323|    0.824017|    0.012006|
|         717|   -5.730948|   -8.560877|    0.824018|    0.012006|
|         718|   -5.746616|   -8.565072|    0.824018|    0.012006|
|         719|   -5.766606|   -8.567841|    0.824019|    0.012006|
|         720|   -5.788062|   -8.569227|    0.824019|    0.012006|
|         721|   -5.808549|   -8.569331|    0.824020|    0.012006|
|         722|   -5.827290|   -8.568273|    0.824020|    0.012006|
|         723|   -5.845064|   -8.566155|    0.824020|    0.012006|
|         724|   -5.863083|   -8.563097|    0.824021|    0.012006|
|         725|   -5.881939|   -8.559261|    0.824021|    0.012006|
|         726|   -5.901257|   -8.554816|    0.824021|    0.012006|
|         727|   -5.919980|   -8.549950|    0.824022|    0.012006|
|         728|   -5.936873|   -8.544850|    0.824022|    0.012007|
|         729|   -5.950947|   -8.539702|    0.824022|    0.012007|
|         730|   -5.961697|   -8.534666|    0.824022|    0.012007|
|         731|   -5.969173|   -8.529870|    0.824022|    0.012007|
|         732|   -5.973964|   -8.525411|    0.824023|    0.012007|
|         733|   -5.977065|   -8.521358|    0.824023|    0.012007|
|         734|   -5.979644|   -8.517743|    0.824023|    0.012007|
|         735|   -5.982771|   -8.514570|    0.824023|    0.012007|
|         736|   -5.987210|   -8.511821|    0.824023|    0.012007|
|         737|   -5.993322|   -8.509460|    0.824023|    0.012007|
|         738|   -6.001050|   -8.507440|    0.824023|    0.012007|
|         739|   -6.009965|   -8.505705|    0.824023|    0.012008|
|         740|   -6.019348|   -8.504199|    0.824023|    0.012008|
|         741|   -6.028313|   -8.502869|    0.824023|    0.012008|
|         742|   -6.036005|   -8.501663|    0.824023|    0.012008|
|         743|   -6.041811|   -8.500540|    0.824023|    0.012008|
|         744|   -6.045547|   -8.499464|    0.824023|    0.012008|
|         745|   -6.047500|   -8.498408|    0.824022|    0.012008|
|         746|   -6.048319|   -8.497351|    0.824022|    0.012008|
|         747|   -6.048805|   -8.496281|    0.824022|    0.012008|
|         748|   -6.049693|   -8.495188|    0.824022|    0.012009|
|         749|   -6.051509|   -8.494066|    0.824022|    0.012009|
|         750|   -6.054511|   -8.492912|    0.824022|    0.012009|
|         751|   -6.058699|   -8.491727|    0.824021|    0.012009|
|         752|   -6.063877|   -8.490514|    0.824021|    0.012009|
|         753|   -6.069731|   -8.489278|    0.824021|    0.012009|
|         754|   -6.075922|   -8.488035|    0.824021|    0.012009|
|         755|   -6.082155|   -8.486786|    0.824020|    0.012009|
|         756|   -6.088240|   -8.485540|    0.824020|    0.012009|
|         757|   -6.094104|   -8.484307|    0.824020|    0.012010|
|         758|   -6.099788|   -8.483103|    0.824020|    0.012010|
|         759|   -6.105407|   -8.481947|    0.824019|    0.012010|
|         760|   -6.111110|   -8.480863|    0.824019|    0.012010|
|         761|   -6.117036|   -8.479874|    0.824018|    0.012010|
|         762|   -6.123292|   -8.479011|    0.824018|    0.012010|
|         763|   -6.129938|   -8.478306|    0.824018|    0.012010|
|         764|   -6.136988|   -8.477795|    0.824017|    0.012010|
|         765|   -6.144422|   -8.477515|    0.824017|    0.012010|
|         766|   -6.152194|   -8.477503|    0.824016|    0.012010|
|         767|   -6.160254|   -8.477797|    0.824016|    0.012010|
|         768|   -6.168546|   -8.478434|    0.824015|    0.012010|
|         769|   -6.177023|   -8.479445|    0.824015|    0.012010|
|         770|   -6.185642|   -8.480856|    0.824015|    0.012010|
|         771|   -6.194359|   -8.482688|    0.824014|    0.012010|
|         772|   -6.203132|   -8.484949|    0.824014|    0.012010|
|         773|   -6.211912|   -8.487636|    0.824013|    0.012010|
|         774|   -6.220640|   -8.490734|    0.824013|    0.012010|
|         775|   -6.229252|   -8.494210|    0.824012|    0.012010|
|         776|   -6.237672|   -8.498016|    0.824012|    0.012010|
|         777|   -6.245822|   -8.502085|    0.824011|    0.012010|
|         778|   -6.253622|   -8.506333|    0.824011|    0.012010|
|         779|   -6.260996|   -8.510661|    0.824011|    0.012010|
|         780|   -6.267873|   -8.514953|    0.824010|    0.012010|
|         781|   -6.274194|   -8.519085|    0.824010|    0.012010|
|         782|   -6.279914|   -8.522924|    0.824010|    0.012010|
|         783|   -6.285002|   -8.526341|    0.824010|    0.012010|
|         784|   -6.289445|   -8.529214|    0.824009|    0.012010|
|         785|   -6.293246|   -8.531439|    0.824009|    0.012010|
|         786|   -6.296424|   -8.532938|    0.824009|    0.012010|
|         787|   -6.299015|   -8.533663|    0.824009|    0.012010|
|         788|   -6.301066|   -8.533603|    0.824009|    0.012010|
|         789|   -6.302636|   -8.532789|    0.824009|    0.012010|
|         790|   -6.303789|   -8.531284|    0.824008|    0.012010|
|         791|   -6.304596|   -8.529186|    0.824008|    0.012010|
|         792|   -6.305127|   -8.526618|    0.824008|    0.012010|
|         793|   -6.305452|   -8.523719|    0.824008|    0.012010|
|         794|   -6.305638|   -8.520641|    0.824009|    0.012010|
|         795|   -6.305746|   -8.517532|    0.824009|    0.012010|
|         796|   -6.305832|   -8.514538|    0.824009|    0.012010|
|         797|   -6.305945|   -8.511793|    0.824009|    0.012010|
|         798|   -6.306126|   -8.509416|    0.824009|    0.012010|
|         799|   -6.306412|   -8.507508|    0.824009|    0.012010|
|         800|   -6.306831|   -8.506151|    0.824009|    0.012009|
|         801|   -6.307405|   -8.505408|    0.824010|    0.012009|
+-----------------------------------------------------------------------+
|Fixed CL Mode                           |Value                         |
+-----------------------------------------------------------------------+
|Current CL                              |0.82401                       |
|Target CL                               |0.824                         |
|Previous AOA                            |2.78049                       |
|Changed AoA by                          |-4.69216e-05                  |
+-----------------------------------------------------------------------+
+----------------------------------------------------------------+
|  Inner_Iter|    rms[Rho]|     rms[nu]|          CL|          CD|
+----------------------------------------------------------------+
|         802|   -4.521944|   -8.403542|    0.824010|    0.012009|
|         803|   -4.905397|   -8.449164|    0.824010|    0.012009|
|         804|   -5.145901|   -8.465526|    0.824010|    0.012008|
|         805|   -5.222340|   -8.475975|    0.824011|    0.012008|
|         806|   -5.274901|   -8.484574|    0.824011|    0.012008|
|         807|   -5.343575|   -8.492311|    0.824011|    0.012008|
|         808|   -5.428633|   -8.499532|    0.824011|    0.012008|
|         809|   -5.517862|   -8.506440|    0.824012|    0.012008|
|         810|   -5.595756|   -8.513135|    0.824012|    0.012008|
|         811|   -5.654366|   -8.519581|    0.824012|    0.012008|
|         812|   -5.694703|   -8.525717|    0.824013|    0.012008|
|         813|   -5.719618|   -8.531571|    0.824013|    0.012008|
|         814|   -5.732116|   -8.537204|    0.824013|    0.012008|
|         815|   -5.737656|   -8.542659|    0.824014|    0.012008|
|         816|   -5.742959|   -8.547874|    0.824014|    0.012008|
|         817|   -5.752788|   -8.552742|    0.824014|    0.012008|
|         818|   -5.768499|   -8.557187|    0.824014|    0.012007|
|         819|   -5.788553|   -8.561189|    0.824015|    0.012007|
|         820|   -5.810037|   -8.564771|    0.824015|    0.012007|
|         821|   -5.830480|   -8.567975|    0.824015|    0.012007|
|         822|   -5.849097|   -8.570820|    0.824015|    0.012007|
|         823|   -5.866693|   -8.573300|    0.824015|    0.012007|
|         824|   -5.884531|   -8.575395|    0.824016|    0.012007|
|         825|   -5.903275|   -8.577098|    0.824016|    0.012007|
|         826|   -5.922632|   -8.578459|    0.824016|    0.012007|
|         827|   -5.941616|   -8.579519|    0.824016|    0.012007|
|         828|   -5.959028|   -8.580348|    0.824016|    0.012007|
|         829|   -5.973868|   -8.581031|    0.824016|    0.012007|
|         830|   -5.985565|   -8.581654|    0.824017|    0.012007|
|         831|   -5.994081|   -8.582291|    0.824017|    0.012007|
|         832|   -5.999925|   -8.583005|    0.824017|    0.012007|
|         833|   -6.004051|   -8.583845|    0.824017|    0.012007|
|         834|   -6.007631|   -8.584834|    0.824017|    0.012007|
|         835|   -6.011777|   -8.585975|    0.824017|    0.012007|
|         836|   -6.017314|   -8.587251|    0.824017|    0.012007|
|         837|   -6.024664|   -8.588629|    0.824017|    0.012007|
|         838|   -6.033821|   -8.590064|    0.824017|    0.012007|
|         839|   -6.044378|   -8.591508|    0.824017|    0.012007|
|         840|   -6.055598|   -8.592906|    0.824017|    0.012007|
|         841|   -6.066536|   -8.594211|    0.824017|    0.012007|
|         842|   -6.076227|   -8.595380|    0.824017|    0.012007|
|         843|   -6.083934|   -8.596375|    0.824017|    0.012007|
|         844|   -6.089366|   -8.597168|    0.824017|    0.012007|
|         845|   -6.092756|   -8.597739|    0.824017|    0.012007|
|         846|   -6.094767|   -8.598075|    0.824016|    0.012007|
|         847|   -6.096262|   -8.598166|    0.824016|    0.012007|
|         848|   -6.098061|   -8.598006|    0.824016|    0.012007|
|         849|   -6.100766|   -8.597589|    0.824016|    0.012007|
|         850|   -6.104686|   -8.596912|    0.824016|    0.012007|
|         851|   -6.109845|   -8.595970|    0.824016|    0.012008|
|         852|   -6.116041|   -8.594765|    0.824016|    0.012008|
|         853|   -6.122934|   -8.593293|    0.824015|    0.012008|
|         854|   -6.130148|   -8.591578|    0.824015|    0.012008|
|         855|   -6.137351|   -8.589618|    0.824015|    0.012008|
|         856|   -6.144325|   -8.587426|    0.824015|    0.012008|
|         857|   -6.150990|   -8.585020|    0.824015|    0.012008|
|         858|   -6.157398|   -8.582429|    0.824014|    0.012008|
|         859|   -6.163692|   -8.579688|    0.824014|    0.012008|
|         860|   -6.170058|   -8.576842|    0.824014|    0.012008|
|         861|   -6.176677|   -8.573943|    0.824013|    0.012008|
|         862|   -6.183694|   -8.571047|    0.824013|    0.012008|
|         863|   -6.191201|   -8.568217|    0.824013|    0.012008|
|         864|   -6.199240|   -8.565520|    0.824012|    0.012008|
|         865|   -6.207811|   -8.563024|    0.824012|    0.012008|
|         866|   -6.216891|   -8.560799|    0.824012|    0.012008|
|         867|   -6.226446|   -8.558909|    0.824011|    0.012008|
|         868|   -6.236439|   -8.557421|    0.824011|    0.012008|
|         869|   -6.246844|   -8.556391|    0.824011|    0.012009|
|         870|   -6.257638|   -8.555869|    0.824010|    0.012009|
|         871|   -6.268802|   -8.555895|    0.824010|    0.012009|
|         872|   -6.280317|   -8.556498|    0.824009|    0.012009|
|         873|   -6.292154|   -8.557693|    0.824009|    0.012009|
|         874|   -6.304273|   -8.559481|    0.824009|    0.012009|
|         875|   -6.316619|   -8.561847|    0.824008|    0.012009|
|         876|   -6.329122|   -8.564759|    0.824008|    0.012009|
|         877|   -6.341696|   -8.568167|    0.824008|    0.012009|
|         878|   -6.354242|   -8.572003|    0.824007|    0.012009|
|         879|   -6.366650|   -8.576182|    0.824007|    0.012009|
|         880|   -6.378803|   -8.580604|    0.824007|    0.012009|
|         881|   -6.390579|   -8.585153|    0.824006|    0.012009|
|         882|   -6.401855|   -8.589702|    0.824006|    0.012009|
|         883|   -6.412514|   -8.594122|    0.824006|    0.012009|
|         884|   -6.422444|   -8.598282|    0.824006|    0.012009|
|         885|   -6.431550|   -8.602060|    0.824006|    0.012009|
|         886|   -6.439751|   -8.605348|    0.824005|    0.012009|
|         887|   -6.446991|   -8.608060|    0.824005|    0.012009|
|         888|   -6.453238|   -8.610142|    0.824005|    0.012009|
|         889|   -6.458486|   -8.611571|    0.824005|    0.012009|
|         890|   -6.462757|   -8.612359|    0.824005|    0.012009|
|         891|   -6.466094|   -8.612555|    0.824005|    0.012009|
|         892|   -6.468561|   -8.612237|    0.824005|    0.012009|
|         893|   -6.470238|   -8.611506|    0.824005|    0.012009|
|         894|   -6.471214|   -8.610485|    0.824005|    0.012009|
|         895|   -6.471585|   -8.609304|    0.824005|    0.012009|
|         896|   -6.471446|   -8.608097|    0.824005|    0.012009|
|         897|   -6.470890|   -8.606992|    0.824005|    0.012009|
|         898|   -6.470006|   -8.606110|    0.824005|    0.012009|
|         899|   -6.468875|   -8.605556|    0.824005|    0.012009|
|         900|   -6.467571|   -8.605419|    0.824005|    0.012009|
|         901|   -6.466159|   -8.605768|    0.824005|    0.012009|
+-----------------------------------------------------------------------+
|Fixed CL Mode                           |Value                         |
+-----------------------------------------------------------------------+
|Current CL                              |0.824005                      |
|Target CL                               |0.824                         |
|Previous AOA                            |2.78044                       |
[...]
|        5298|   -6.041911|   -7.931261|    0.824237|    0.012013|
|        5299|   -6.048699|   -7.934612|    0.824237|    0.012013|
|        5300|   -6.055074|   -7.937959|    0.824237|    0.012013|
|        5301|   -6.060996|   -7.941312|    0.824238|    0.012013|
|        5302|   -6.066440|   -7.944676|    0.824238|    0.012013|
|        5303|   -6.071392|   -7.948057|    0.824238|    0.012013|
|        5304|   -6.075851|   -7.951455|    0.824238|    0.012012|
|        5305|   -6.079828|   -7.954873|    0.824238|    0.012012|
|        5306|   -6.083346|   -7.958309|    0.824238|    0.012012|
|        5307|   -6.086440|   -7.961763|    0.824238|    0.012012|
|        5308|   -6.089152|   -7.965235|    0.824238|    0.012012|
|        5309|   -6.091531|   -7.968726|    0.824238|    0.012012|
|        5310|   -6.093635|   -7.972236|    0.824238|    0.012012|
|        5311|   -6.095520|   -7.975768|    0.824238|    0.012012|
|        5312|   -6.097247|   -7.979325|    0.824239|    0.012012|
|        5313|   -6.098875|   -7.982912|    0.824239|    0.012012|
|        5314|   -6.100461|   -7.986533|    0.824239|    0.012012|
|        5315|   -6.102058|   -7.990195|    0.824239|    0.012012|
|        5316|   -6.103716|   -7.993904|    0.824239|    0.012012|
|        5317|   -6.105479|   -7.997667|    0.824239|    0.012012|
|        5318|   -6.107385|   -8.001490|    0.824239|    0.012013|
|        5319|   -6.109466|   -8.005380|    0.824239|    0.012013|
|        5320|   -6.111746|   -8.009343|    0.824240|    0.012013|
|        5321|   -6.114245|   -8.013383|    0.824240|    0.012013|
|        5322|   -6.116973|   -8.017503|    0.824240|    0.012013|
|        5323|   -6.119936|   -8.021706|    0.824240|    0.012013|
|        5324|   -6.123130|   -8.025991|    0.824240|    0.012013|
|        5325|   -6.126548|   -8.030358|    0.824240|    0.012013|
|        5326|   -6.130172|   -8.034804|    0.824240|    0.012013|
|        5327|   -6.133984|   -8.039322|    0.824241|    0.012013|
|        5328|   -6.137956|   -8.043907|    0.824241|    0.012013|
|        5329|   -6.142056|   -8.048552|    0.824241|    0.012013|
|        5330|   -6.146249|   -8.053247|    0.824241|    0.012013|
|        5331|   -6.150495|   -8.057982|    0.824241|    0.012013|
|        5332|   -6.154753|   -8.062747|    0.824241|    0.012014|
|        5333|   -6.158978|   -8.067529|    0.824241|    0.012014|
|        5334|   -6.163128|   -8.072317|    0.824242|    0.012014|
|        5335|   -6.167162|   -8.077100|    0.824242|    0.012014|
|        5336|   -6.171039|   -8.081865|    0.824242|    0.012014|
|        5337|   -6.174724|   -8.086603|    0.824242|    0.012014|
|        5338|   -6.178189|   -8.091304|    0.824242|    0.012014|
|        5339|   -6.181409|   -8.095959|    0.824242|    0.012014|
|        5340|   -6.184370|   -8.100561|    0.824242|    0.012014|
|        5341|   -6.187065|   -8.105105|    0.824242|    0.012014|
|        5342|   -6.189494|   -8.109586|    0.824242|    0.012014|
|        5343|   -6.191667|   -8.114001|    0.824243|    0.012014|
|        5344|   -6.193602|   -8.118347|    0.824243|    0.012015|
|        5345|   -6.195324|   -8.122624|    0.824243|    0.012015|
|        5346|   -6.196865|   -8.126833|    0.824243|    0.012015|
|        5347|   -6.198260|   -8.130973|    0.824243|    0.012015|
|        5348|   -6.199550|   -8.135048|    0.824243|    0.012015|
|        5349|   -6.200778|   -8.139060|    0.824243|    0.012015|
|        5350|   -6.201988|   -8.143014|    0.824243|    0.012015|
|        5351|   -6.203224|   -8.146914|    0.824243|    0.012015|
|        5352|   -6.204530|   -8.150761|    0.824243|    0.012015|
|        5353|   -6.205947|   -8.154559|    0.824243|    0.012015|
|        5354|   -6.207515|   -8.158311|    0.824243|    0.012015|
|        5355|   -6.209269|   -8.162019|    0.824243|    0.012015|
|        5356|   -6.211241|   -8.165687|    0.824243|    0.012015|
|        5357|   -6.213457|   -8.169317|    0.824243|    0.012015|
|        5358|   -6.215942|   -8.172910|    0.824243|    0.012015|
|        5359|   -6.218713|   -8.176468|    0.824243|    0.012015|
|        5360|   -6.221783|   -8.179993|    0.824243|    0.012015|
|        5361|   -6.225161|   -8.183483|    0.824243|    0.012015|
|        5362|   -6.228850|   -8.186938|    0.824243|    0.012015|
|        5363|   -6.232849|   -8.190359|    0.824243|    0.012015|
|        5364|   -6.237150|   -8.193743|    0.824243|    0.012015|
|        5365|   -6.241743|   -8.197091|    0.824243|    0.012015|
|        5366|   -6.246611|   -8.200402|    0.824243|    0.012015|
|        5367|   -6.251732|   -8.203675|    0.824243|    0.012015|
|        5368|   -6.257079|   -8.206911|    0.824243|    0.012015|
|        5369|   -6.262624|   -8.210110|    0.824243|    0.012015|
|        5370|   -6.268329|   -8.213275|    0.824243|    0.012015|
|        5371|   -6.274157|   -8.216407|    0.824243|    0.012015|
|        5372|   -6.280064|   -8.219510|    0.824243|    0.012015|
|        5373|   -6.286005|   -8.222588|    0.824243|    0.012015|
|        5374|   -6.291933|   -8.225645|    0.824243|    0.012015|
|        5375|   -6.297799|   -8.228687|    0.824243|    0.012015|
|        5376|   -6.303552|   -8.231719|    0.824243|    0.012015|
|        5377|   -6.309145|   -8.234747|    0.824243|    0.012015|
|        5378|   -6.314532|   -8.237779|    0.824243|    0.012015|
|        5379|   -6.319669|   -8.240822|    0.824243|    0.012014|
|        5380|   -6.324518|   -8.243882|    0.824243|    0.012014|
|        5381|   -6.329045|   -8.246968|    0.824243|    0.012014|
|        5382|   -6.333223|   -8.250087|    0.824243|    0.012014|
|        5383|   -6.337032|   -8.253247|    0.824243|    0.012014|
|        5384|   -6.340458|   -8.256454|    0.824243|    0.012014|
|        5385|   -6.343497|   -8.259716|    0.824243|    0.012014|
|        5386|   -6.346151|   -8.263038|    0.824243|    0.012014|
|        5387|   -6.348426|   -8.266426|    0.824243|    0.012014|
|        5388|   -6.350339|   -8.269884|    0.824243|    0.012014|
|        5389|   -6.351908|   -8.273415|    0.824243|    0.012014|
|        5390|   -6.353157|   -8.277021|    0.824243|    0.012013|
|        5391|   -6.354112|   -8.280702|    0.824243|    0.012013|
|        5392|   -6.354800|   -8.284459|    0.824243|    0.012013|
|        5393|   -6.355250|   -8.288289|    0.824243|    0.012013|
|        5394|   -6.355490|   -8.292188|    0.824243|    0.012013|
|        5395|   -6.355547|   -8.296152|    0.824243|    0.012013|
|        5396|   -6.355446|   -8.300175|    0.824243|    0.012013|
|        5397|   -6.355210|   -8.304249|    0.824243|    0.012013|
|        5398|   -6.354859|   -8.308366|    0.824243|    0.012013|
|        5399|   -6.354412|   -8.312515|    0.824243|    0.012013|
|        5400|   -6.353883|   -8.316686|    0.824244|    0.012012|
|        5401|   -6.353286|   -8.320867|    0.824244|    0.012012|
|        5402|   -6.352630|   -8.325047|    0.824244|    0.012012|
|        5403|   -6.351923|   -8.329212|    0.824244|    0.012012|
|        5404|   -6.351173|   -8.333353|    0.824244|    0.012012|
|        5405|   -6.350383|   -8.337455|    0.824244|    0.012012|
|        5406|   -6.349558|   -8.341508|    0.824244|    0.012012|
|        5407|   -6.348700|   -8.345500|    0.824244|    0.012012|
|        5408|   -6.347813|   -8.349422|    0.824245|    0.012012|
|        5409|   -6.346896|   -8.353265|    0.824245|    0.012012|
|        5410|   -6.345954|   -8.357020|    0.824245|    0.012011|
|        5411|   -6.344987|   -8.360680|    0.824245|    0.012011|
|        5412|   -6.343998|   -8.364239|    0.824245|    0.012011|
|        5413|   -6.342989|   -8.367693|    0.824245|    0.012011|
|        5414|   -6.341965|   -8.371037|    0.824245|    0.012011|
|        5415|   -6.340929|   -8.374268|    0.824246|    0.012011|
|        5416|   -6.339885|   -8.377384|    0.824246|    0.012011|
|        5417|   -6.338840|   -8.380384|    0.824246|    0.012011|
|        5418|   -6.337798|   -8.383267|    0.824246|    0.012011|
|        5419|   -6.336766|   -8.386033|    0.824246|    0.012011|
|        5420|   -6.335753|   -8.388682|    0.824246|    0.012011|
|        5421|   -6.334766|   -8.391215|    0.824246|    0.012011|
|        5422|   -6.333815|   -8.393632|    0.824246|    0.012011|
|        5423|   -6.332910|   -8.395934|    0.824246|    0.012011|
|        5424|   -6.332060|   -8.398124|    0.824246|    0.012011|
|        5425|   -6.331279|   -8.400203|    0.824246|    0.012011|
|        5426|   -6.330577|   -8.402174|    0.824247|    0.012011|
|        5427|   -6.329967|   -8.404039|    0.824247|    0.012011|
|        5428|   -6.329463|   -8.405803|    0.824247|    0.012011|
|        5429|   -6.329078|   -8.407469|    0.824247|    0.012011|
|        5430|   -6.328827|   -8.409044|    0.824247|    0.012011|
|        5431|   -6.328724|   -8.410533|    0.824247|    0.012011|
|        5432|   -6.328784|   -8.411944|    0.824247|    0.012011|
|        5433|   -6.329021|   -8.413284|    0.824247|    0.012011|
|        5434|   -6.329450|   -8.414561|    0.824247|    0.012011|
|        5435|   -6.330083|   -8.415786|    0.824247|    0.012011|
|        5436|   -6.330936|   -8.416969|    0.824247|    0.012011|
|        5437|   -6.332020|   -8.418120|    0.824247|    0.012011|
|        5438|   -6.333346|   -8.419252|    0.824247|    0.012011|
|        5439|   -6.334924|   -8.420375|    0.824247|    0.012011|
|        5440|   -6.336764|   -8.421501|    0.824247|    0.012011|
|        5441|   -6.338871|   -8.422644|    0.824247|    0.012011|
|        5442|   -6.341251|   -8.423813|    0.824247|    0.012011|
|        5443|   -6.343905|   -8.425022|    0.824247|    0.012011|
|        5444|   -6.346835|   -8.426280|    0.824247|    0.012011|
|        5445|   -6.350037|   -8.427597|    0.824247|    0.012011|
|        5446|   -6.353505|   -8.428985|    0.824247|    0.012011|
|        5447|   -6.357231|   -8.430450|    0.824247|    0.012011|
|        5448|   -6.361203|   -8.432002|    0.824247|    0.012011|
|        5449|   -6.365405|   -8.433647|    0.824247|    0.012011|
|        5450|   -6.369819|   -8.435391|    0.824246|    0.012011|
|        5451|   -6.374422|   -8.437238|    0.824246|    0.012012|
|        5452|   -6.379186|   -8.439194|    0.824246|    0.012012|
|        5453|   -6.384083|   -8.441261|    0.824246|    0.012012|
|        5454|   -6.389079|   -8.443440|    0.824246|    0.012012|
|        5455|   -6.394137|   -8.445735|    0.824246|    0.012012|
|        5456|   -6.399216|   -8.448144|    0.824246|    0.012012|
|        5457|   -6.404275|   -8.450668|    0.824246|    0.012012|
|        5458|   -6.409269|   -8.453306|    0.824246|    0.012012|
|        5459|   -6.414153|   -8.456057|    0.824246|    0.012012|
|        5460|   -6.418879|   -8.458919|    0.824245|    0.012012|
|        5461|   -6.423404|   -8.461890|    0.824245|    0.012012|
|        5462|   -6.427681|   -8.464967|    0.824245|    0.012012|
|        5463|   -6.431670|   -8.468147|    0.824245|    0.012012|
|        5464|   -6.435333|   -8.471428|    0.824245|    0.012013|
|        5465|   -6.438637|   -8.474806|    0.824245|    0.012013|
|        5466|   -6.441555|   -8.478278|    0.824245|    0.012013|
|        5467|   -6.444066|   -8.481840|    0.824244|    0.012013|
|        5468|   -6.446157|   -8.485490|    0.824244|    0.012013|
|        5469|   -6.447823|   -8.489223|    0.824244|    0.012013|
|        5470|   -6.449064|   -8.493037|    0.824244|    0.012013|
|        5471|   -6.449892|   -8.496927|    0.824244|    0.012013|
|        5472|   -6.450322|   -8.500891|    0.824243|    0.012013|
|        5473|   -6.450378|   -8.504923|    0.824243|    0.012013|
|        5474|   -6.450088|   -8.509021|    0.824243|    0.012013|
|        5475|   -6.449486|   -8.513180|    0.824243|    0.012013|
|        5476|   -6.448608|   -8.517397|    0.824243|    0.012013|
|        5477|   -6.447493|   -8.521668|    0.824242|    0.012013|
|        5478|   -6.446183|   -8.525989|    0.824242|    0.012013|
|        5479|   -6.444719|   -8.530356|    0.824242|    0.012013|
|        5480|   -6.443142|   -8.534766|    0.824242|    0.012013|
|        5481|   -6.441491|   -8.539215|    0.824242|    0.012013|
|        5482|   -6.439807|   -8.543700|    0.824241|    0.012013|
|        5483|   -6.438124|   -8.548217|    0.824241|    0.012013|
|        5484|   -6.436477|   -8.552763|    0.824241|    0.012013|
|        5485|   -6.434898|   -8.557335|    0.824241|    0.012013|
|        5486|   -6.433414|   -8.561931|    0.824241|    0.012013|
|        5487|   -6.432052|   -8.566549|    0.824240|    0.012013|
|        5488|   -6.430835|   -8.571186|    0.824240|    0.012013|
|        5489|   -6.429782|   -8.575842|    0.824240|    0.012013|
|        5490|   -6.428911|   -8.580515|    0.824240|    0.012013|
|        5491|   -6.428237|   -8.585204|    0.824240|    0.012013|
|        5492|   -6.427771|   -8.589911|    0.824240|    0.012013|
|        5493|   -6.427523|   -8.594635|    0.824239|    0.012013|
|        5494|   -6.427502|   -8.599377|    0.824239|    0.012013|
|        5495|   -6.427713|   -8.604139|    0.824239|    0.012013|
|        5496|   -6.428160|   -8.608924|    0.824239|    0.012013|
|        5497|   -6.428845|   -8.613732|    0.824239|    0.012013|
|        5498|   -6.429769|   -8.618567|    0.824239|    0.012013|
|        5499|   -6.430931|   -8.623432|    0.824239|    0.011999|
+-----------------------------------------------------------------------+
|Fixed CL Mode (Finite Difference)       |Value                         |
+-----------------------------------------------------------------------+
|Delta CL / Delta AoA                    |0.238325                      |
|Delta CD / Delta CL                     |0.0174054                     |
|Delta CMz / Delta CL                    |0.000576541                   |
+-----------------------------------------------------------------------+
Writing Flow Meta-Data file: flow.meta

----------------------------- Solver Exit -------------------------------

Maximum number of iterations reached (ITER = 5500) before convergence.
+-----------------------------------------------------------------------+
|      Convergence Field     |     Value    |   Criterion  |  Converged |
+-----------------------------------------------------------------------+
|                    rms[Rho]|      -6.43093|         < -12|          No|
+-----------------------------------------------------------------------+
-------------------------------------------------------------------------

--------------------------- Finalizing Solver ---------------------------
Deleted CNumerics container.
Deleted CIntegration container.
Deleted CSolver container.
Deleted CIteration container.
Deleted CInterface container.
Deleted CGeometry container.
Deleted CFreeFormDefBox class.
Deleted CSurfaceMovement class.
Deleted CVolumetricMovement class.
Deleted CConfig container.
Deleted nInst container.
Deleted COutput class.
-------------------------------------------------------------------------

------------------------- Exit Success (SU2_CFD) ------------------------


-------------------------------------------------------------------------
|    ___ _   _ ___                                                      |
|   / __| | | |_  )   Release 8.0.0 "Harrier"                           |
|   \__ \ |_| |/ /                                                      |
|   |___/\___//___|   Suite (Solution Exporting Code)                   |
|                                                                       |
-------------------------------------------------------------------------
| SU2 Project Website: https://su2code.github.io                        |
|                                                                       |
| The SU2 Project is maintained by the SU2 Foundation                   |
| (http://su2foundation.org)                                            |
-------------------------------------------------------------------------
| Copyright 2012-2023, SU2 Contributors                                 |
|                                                                       |
| SU2 is free software; you can redistribute it and/or                  |
| modify it under the terms of the GNU Lesser General Public            |
| License as published by the Free Software Foundation; either          |
| version 2.1 of the License, or (at your option) any later version.    |
|                                                                       |
| SU2 is distributed in the hope that it will be useful,                |
| but WITHOUT ANY WARRANTY; without even the implied warranty of        |
| MERCHANTABILITY or FITNESS FOR A PARTICULAR PURPOSE. See the GNU      |
| Lesser General Public License for more details.                       |
|                                                                       |
| You should have received a copy of the GNU Lesser General Public      |
| License along with SU2. If not, see <http://www.gnu.org/licenses/>.   |
-------------------------------------------------------------------------

----------------- Physical Case Definition ( Zone 0 ) -------------------
Input mesh file name: mesh_RAE2822_turb_deform.su2

-------------------- Output Information ( Zone 0 ) ----------------------
The tabular file format is CSV (.csv).
Flow variables file name: flow.

------------- Config File Boundary Information ( Zone 0 ) ---------------
+-----------------------------------------------------------------------+
|                        Marker Type|                        Marker Name|
+-----------------------------------------------------------------------+
|                          Far-field|                           FARFIELD|
+-----------------------------------------------------------------------+
|                     Heat flux wall|                            AIRFOIL|
+-----------------------------------------------------------------------+
Two dimensional problem.
13937 grid points before partitioning.
22842 volume elements before partitioning.
2 surface markers.
192 boundary elements in index 0 (Marker = AIRFOIL).
40 boundary elements in index 1 (Marker = FARFIELD).
Executing the partitioning functions.
Building the graph adjacency structure.
Calling ParMETIS... graph partitioning complete (831 edge cuts).
Distributing ParMETIS coloring.
Rebalancing vertices.
Rebalancing volume element connectivity.
Rebalancing markers and surface elements.
14875 vertices including ghost points. 
23674 interior elements including halo cells. 
18780 triangles.
4894 quadrilaterals.
Establishing MPI communication patterns.
Identify vertices.
Storing a mapping from global to local point index.

------------------------- Solution Postprocessing -----------------------
Reading and storing the solution from restart_flow.
Volume output fields: COORDINATES, SOLUTION
  Info: Ignoring the following screen output fields:
  RMS_DENSITY, RMS_NU_TILDE, LIFT, DRAG
Screen output fields: INNER_ITER
  Info: Ignoring the following history output groups:
  RMS_RES, AERO_COEFF
History output group(s): ITER
Warning: No (valid) fields chosen for convergence monitoring. Convergence monitoring inactive.
Warning: No (valid) fields chosen for time convergence monitoring. Time convergence monitoring inactive.
|Paraview                           |flow.vtu                           |
|Paraview surface                   |surface_flow.vtu                   |
|CSV file                           |surface_flow.csv                   |

------------------------- Finalize Solver -------------------------
Deleted CGeometry container.
Deleted CSolver class.
Deleted CConfig container.
Deleted COutput class.

Completed in 0.018743 seconds on 6 cores.

------------------------- Exit Success (SU2_SOL) ------------------------

