
-------------------------------------------------------------------------
|    ___ _   _ ___                                                      |
|   / __| | | |_  )   Release 8.0.0 "Harrier"                           |
|   \__ \ |_| |/ /                                                      |
|   |___/\___//___|   Suite (Computational Fluid Dynamics Code)         |
|                                                                       |
-------------------------------------------------------------------------
| SU2 Project Website: https://su2code.github.io                        |
|                                                                       |
| The SU2 Project is maintained by the SU2 Foundation                   |
| (http://su2foundation.org)                                            |
-------------------------------------------------------------------------
| Copyright 2012-2023, SU2 Contributors                                 |
|                                                                       |
| SU2 is free software; you can redistribute it and/or                  |
| modify it under the terms of the GNU Lesser General Public            |
| License as published by the Free Software Foundation; either          |
| version 2.1 of the License, or (at your option) any later version.    |
|                                                                       |
| SU2 is distributed in the hope that it will be useful,                |
| but WITHOUT ANY WARRANTY; without even the implied warranty of        |
| MERCHANTABILITY or FITNESS FOR A PARTICULAR PURPOSE. See the GNU      |
| Lesser General Public License for more details.                       |
|                                                                       |
| You should have received a copy of the GNU Lesser General Public      |
| License along with SU2. If not, see <http://www.gnu.org/licenses/>.   |
-------------------------------------------------------------------------


Problem definition:

Compressible Euler equations.
Mach number: 0.729.
Angle of attack (AoA): 2 deg, and angle of sideslip (AoS): 0 deg.
Dimensional simulation.
The reference area is 1 m^2.
The reference length is 1 m.


Problem definition:

Inviscid flow: Computing density based on free-stream
temperature and pressure using the ideal gas law.
Force coefficients computed using free-stream values.
-- Input conditions:
Fluid Model: STANDARD_AIR 
Specific gas constant: 287.058 N.m/kg.K.
Specific gas constant (non-dim): 287.058
Specific Heat Ratio: 1.4000 
Free-stream static pressure: 101325 Pa.
Free-stream total pressure: 144296 Pa.
Free-stream temperature: 288.15 K.
Free-stream total temperature: 318.777 K.
Free-stream density: 1.22498 kg/m^3.
Free-stream velocity: (247.925, 8.65775) m/s. Magnitude: 248.077 m/s.
Free-stream total energy per unit mass: 237560 m^2/s^2.
-- Reference values:
Reference specific gas constant: 1 N.m/kg.K.
Reference pressure: 1 Pa.
Reference temperature: 1 K.
Reference density: 1 kg/m^3.
Reference velocity: 1 m/s.
Reference energy per unit mass: 1 m^2/s^2.
-- Resulting non-dimensional state:
Mach number (non-dim): 0.729
Specific gas constant (non-dim): 287.058
Free-stream temperature (non-dim): 288.15
Free-stream pressure (non-dim): 101325
Free-stream density (non-dim): 1.22498
Free-stream velocity (non-dim): (247.925, 8.65775). Magnitude: 248.077
Free-stream total energy per unit mass (non-dim): 237560


Forces breakdown:

Center of Pressure: X=0.086921Y+0.568793 m.

NOTE: Multiply forces by the non-dimensional factor: 37693.781527, and the reference factor: 1.000000
to obtain the dimensional force.

Total CL:       2.040367 | Pressure (  100%):    2.040367 | Friction (    0%):    0.000000 | Momentum (    0%):    0.000000
Total CD:       0.249359 | Pressure (   99%):    0.249359 | Friction (    0%):    0.000000 | Momentum (    0%):    0.000000
Total CL/CD:    8.182438 | Pressure (  100%):    8.182438 | Friction (    0%):    0.000000 | Momentum (    0%):    0.000000
Total CMz:      0.652834 | Pressure (   99%):    0.652834 | Friction (    0%):    0.000000 | Momentum (    0%):    0.000000
Total CFx:      0.178000 | Pressure (   99%):    0.178000 | Friction (    0%):    0.000000 | Momentum (    0%):    0.000000
Total CFy:      2.047826 | Pressure (  100%):    2.047826 | Friction (    0%):    0.000000 | Momentum (    0%):    0.000000


Surface name: Airfoil

Total CL    (   88%):    1.809235 | Pressure (  100%):    1.809235 | Friction (    0%):    0.000000 | Momentum (    0%):    0.000000
Total CD    (    2%):    0.005876 | Pressure (   99%):    0.005876 | Friction (    0%):    0.000000 | Momentum (    0%):    0.000000
Total CL/CD ( 3762%):  307.900522 | Pressure (  100%):  307.900522 | Friction (    0%):    0.000000 | Momentum (    0%):    0.000000
Total CMz   (   61%):    0.401551 | Pressure (   99%):    0.401551 | Friction (    0%):    0.000000 | Momentum (    0%):    0.000000
Total CFx   (  -32%):   -0.057269 | Pressure (  100%):   -0.057269 | Friction (    0%):    0.000000 | Momentum (    0%):    0.000000
Total CFy   (   88%):    1.808338 | Pressure (  100%):    1.808338 | Friction (    0%):    0.000000 | Momentum (    0%):    0.000000

Surface name: Flap

Total CL    (   15%):    0.307698 | Pressure (   99%):    0.307698 | Friction (    0%):    0.000000 | Momentum (    0%):    0.000000
Total CD    (   80%):    0.200169 | Pressure (   99%):    0.200169 | Friction (    0%):    0.000000 | Momentum (    0%):    0.000000
Total CL/CD (   18%):    1.537196 | Pressure (  100%):    1.537196 | Friction (    0%):    0.000000 | Momentum (    0%):    0.000000
Total CMz   (   34%):    0.227184 | Pressure (   99%):    0.227184 | Friction (    0%):    0.000000 | Momentum (    0%):    0.000000
Total CFx   (  106%):    0.189308 | Pressure (   99%):    0.189308 | Friction (    0%):    0.000000 | Momentum (    0%):    0.000000
Total CFy   (   15%):    0.314497 | Pressure (   99%):    0.314497 | Friction (    0%):    0.000000 | Momentum (    0%):    0.000000

Surface name: Slat

Total CL    (   -3%):   -0.076566 | Pressure (  100%):   -0.076566 | Friction (    0%):    0.000000 | Momentum (    0%):    0.000000
Total CD    (   17%):    0.043315 | Pressure (   99%):    0.043315 | Friction (    0%):    0.000000 | Momentum (    0%):    0.000000
Total CL/CD (  -21%):   -1.767679 | Pressure (  100%):   -1.767679 | Friction (    0%):    0.000000 | Momentum (    0%):    0.000000
Total CMz   (    3%):    0.024098 | Pressure (   99%):    0.024098 | Friction (    0%):    0.000000 | Momentum (    0%):    0.000000
Total CFx   (   25%):    0.045960 | Pressure (   99%):    0.045960 | Friction (    0%):    0.000000 | Momentum (    0%):    0.000000
Total CFy   (   -3%):   -0.075008 | Pressure (  100%):   -0.075008 | Friction (    0%):    0.000000 | Momentum (    0%):    0.000000

