
-------------------------------------------------------------------------
|    ___ _   _ ___                                                      |
|   / __| | | |_  )   Release 8.0.0 "Harrier"                           |
|   \__ \ |_| |/ /                                                      |
|   |___/\___//___|   Suite (Computational Fluid Dynamics Code)         |
|                                                                       |
-------------------------------------------------------------------------
| SU2 Project Website: https://su2code.github.io                        |
|                                                                       |
| The SU2 Project is maintained by the SU2 Foundation                   |
| (http://su2foundation.org)                                            |
-------------------------------------------------------------------------
| Copyright 2012-2023, SU2 Contributors                                 |
|                                                                       |
| SU2 is free software; you can redistribute it and/or                  |
| modify it under the terms of the GNU Lesser General Public            |
| License as published by the Free Software Foundation; either          |
| version 2.1 of the License, or (at your option) any later version.    |
|                                                                       |
| SU2 is distributed in the hope that it will be useful,                |
| but WITHOUT ANY WARRANTY; without even the implied warranty of        |
| MERCHANTABILITY or FITNESS FOR A PARTICULAR PURPOSE. See the GNU      |
| Lesser General Public License for more details.                       |
|                                                                       |
| You should have received a copy of the GNU Lesser General Public      |
| License along with SU2. If not, see <http://www.gnu.org/licenses/>.   |
-------------------------------------------------------------------------

Parsing config file for zone 0

----------------- Physical Case Definition ( Zone 0 ) -------------------
Compressible Euler equations.
Mach number: 0.729.
Angle of attack (AoA): 2 deg, and angle of sideslip (AoS): 0 deg.
Reading and writing binary SU2 native restart files.
Read flow solution from: restart_flow.dat.
Dimensional simulation.
The reference area is 1 m^2.
The semi-span will be computed using the max y(3D) value.
The reference length is 1 m.
Surface(s) where the force coefficients are evaluated and 
their reference origin for moment computation: 
   - Airfoil (0.25, 0, 0).
   - Flap (0.25, 0, 0).
   - Slat (0.25, 0, 0) m.
Surface(s) plotted in the output file: Airfoil, Flap, Slat.
Input mesh file name: Mesh.su2

--------------- Space Numerical Integration ( Zone 0 ) ------------------
Roe (with entropy fix = 0.001) solver for the flow inviscid terms.
Standard Roe without low-dissipation function.
Second order integration in space, with slope limiter.
Venkatakrishnan slope-limiting method, with constant: 0.03.
The reference element size is: 1. 
Gradient for upwind reconstruction: inverse-distance weighted Least-Squares.
Gradient for viscous and source terms: inverse-distance weighted Least-Squares.

--------------- Time Numerical Integration  ( Zone 0 ) ------------------
Local time stepping (steady state simulation).
Euler implicit method for the flow equations.
FGMRES is used for solving the linear system.
Using a ILU(0) preconditioning.
Convergence criteria of the linear solver: 1e-06.
Max number of linear iterations: 10.
CFL adaptation. Factor down: 0.5, factor up: 1.1,
                lower limit: 1, upper limit: 1000,
                acceptable linear residual: 0.001.
Courant-Friedrichs-Lewy number:        2

------------------ Convergence Criteria  ( Zone 0 ) ---------------------
Maximum number of solver subiterations: 5000.
Begin convergence monitoring at iteration 10.
Residual minimum value: 1e-14.
Cauchy series min. value: 1e-06.
Number of Cauchy elements: 100.
Begin windowed time average at iteration 0.

-------------------- Output Information ( Zone 0 ) ----------------------
File writing frequency: 
+------------------------------------+
|                     File| Frequency|
+------------------------------------+
|                  RESTART|       500|
|                 PARAVIEW|       500|
|         SURFACE_PARAVIEW|       500|
+------------------------------------+
Writing the convergence history file every 1 inner iterations.
Writing the screen convergence history every 1 inner iterations.
The tabular file format is CSV (.csv).
Convergence history file name: historySecond.
Forces breakdown file name: forces_breakdown.dat.
Surface file name: surface_flow.
Volume file name: flow.
Restart file name: restart_flow.dat.

------------- Config File Boundary Information ( Zone 0 ) ---------------
+-----------------------------------------------------------------------+
|                        Marker Type|                        Marker Name|
+-----------------------------------------------------------------------+
|                         Euler wall|                            Airfoil|
|                                   |                                0.0|
|                                   |                               Flap|
|                                   |                                0.0|
|                                   |                               Slat|
|                                   |                                0.0|
+-----------------------------------------------------------------------+
|                          Far-field|                           Farfield|
+-----------------------------------------------------------------------+

-------------------- Output Preprocessing ( Zone 0 ) --------------------

WARNING: SURFACE_PRESSURE_DROP can only be computed for at least 2 surfaces (outlet, inlet, ...)

Screen output fields: INNER_ITER, WALL_TIME, RMS_DENSITY, LIFT, DRAG, MIN_CFL, MAX_CFL, AVG_CFL
  Info: Ignoring the following history output groups:
  RESIDUALS, CFL
History output group(s): INNER_ITER, LIFT, DRAG
Convergence field(s): LIFT
Warning: No (valid) fields chosen for time convergence monitoring. Time convergence monitoring inactive.
  Info: Ignoring the following volume output fields/groups:
  RESIDUALS, WALL_DISTANCE
Volume output fields: SOLUTION, PRIMITIVE, GRADIENTS, HESSIANS, EIGENVALUES, COORDINATES

------------------- Geometry Preprocessing ( Zone 0 ) -------------------
Two dimensional problem.
25557 grid points before partitioning.
26035 volume elements before partitioning.
4 surface markers.
298 boundary elements in index 0 (Marker = Airfoil).
158 boundary elements in index 1 (Marker = Farfield).
139 boundary elements in index 2 (Marker = Flap).
259 boundary elements in index 3 (Marker = Slat).
Executing the partitioning functions.
Building the graph adjacency structure.
Calling ParMETIS... graph partitioning complete (582 edge cuts).
Distributing ParMETIS coloring.
Rebalancing vertices.
Rebalancing volume element connectivity.
Rebalancing markers and surface elements.
26718 vertices including ghost points. 
26616 interior elements including halo cells. 
1823 triangles.
24793 quadrilaterals.
Establishing MPI communication patterns.
Setting point connectivity.
Renumbering points (Reverse Cuthill McKee Ordering).
Recomputing point connectivity.
Setting element connectivity.
Checking the numerical grid orientation.
All volume elements are correctly orientend.
All surface elements are correctly orientend.
Identifying edges and vertices.
Setting the control volume structure.
Area of the computational grid: 31953.3.
Searching for the closest normal neighbors to the surfaces.
Storing a mapping from global to local point index.
Compute the surface curvature.
Max K: 19684.6. Mean K: 125.28. Standard deviation K: 1268.56.
Checking for periodicity.
Computing mesh quality statistics for the dual control volumes.
+--------------------------------------------------------------+
|           Mesh Quality Metric|        Minimum|        Maximum|
+--------------------------------------------------------------+
|    Orthogonality Angle (deg.)|        75.2034|             90|
|     CV Face Area Aspect Ratio|        1.00559|        12.0144|
|           CV Sub-Volume Ratio|        1.00215|        322.573|
+--------------------------------------------------------------+
Finding max control volume width.
Communicating number of neighbors.
Wetted area = 2.56757 m.
Area projection in the x-plane = 0.364095 m, y-plane = 1.1478 m.
Max. coordinate in the x-direction = 1.06769 m, y-direction = 0.0602552 m.
Min. coordinate in the x-direction = -0.0559944 m, y-direction = -0.147724 m.
Checking if Euler & Symmetry markers are straight/plane:
Boundary marker Airfoil is NOT a single straight.
Boundary marker 0.0 is a single straight.
Boundary marker Flap is NOT a single straight.
Boundary marker 0.0 is a single straight.
Boundary marker Slat is NOT a single straight.
Boundary marker 0.0 is a single straight.
Computing wall distances.

-------------------- Solver Preprocessing ( Zone 0 ) --------------------
Inviscid flow: Computing density based on free-stream
temperature and pressure using the ideal gas law.
Force coefficients computed using free-stream values.

-- Models:
+------------------------------------------------------------------------------+
|          Viscosity Model|        Conductivity Model|              Fluid Model|
+------------------------------------------------------------------------------+
|                        -|                         -|             STANDARD_AIR|
+------------------------------------------------------------------------------+
-- Fluid properties:
+------------------------------------------------------------------------------+
|                  Name|    Dim. value|    Ref. value|      Unit|Non-dim. value|
+------------------------------------------------------------------------------+
|          Gas Constant|       287.058|             1|  N.m/kg.K|       287.058|
|      Spec. Heat Ratio|             -|             -|         -|           1.4|
+------------------------------------------------------------------------------+
-- Initial and free-stream conditions:
+------------------------------------------------------------------------------+
|                  Name|    Dim. value|    Ref. value|      Unit|Non-dim. value|
+------------------------------------------------------------------------------+
|       Static Pressure|        101325|             1|        Pa|        101325|
|               Density|       1.22498|             1|    kg/m^3|       1.22498|
|           Temperature|        288.15|             1|         K|        288.15|
|          Total Energy|        237560|             1|   m^2/s^2|        237560|
|            Velocity-X|       247.925|             1|       m/s|       247.925|
|            Velocity-Y|       8.65775|             1|       m/s|       8.65775|
|    Velocity Magnitude|       248.077|             1|       m/s|       248.077|
+------------------------------------------------------------------------------+
|           Mach Number|             -|             -|         -|         0.729|
+------------------------------------------------------------------------------+
Initialize Jacobian structure (Euler). MG level: 0.

------------------- Numerics Preprocessing ( Zone 0 ) -------------------

----------------- Integration Preprocessing ( Zone 0 ) ------------------

------------------- Iteration Preprocessing ( Zone 0 ) ------------------
Euler/Navier-Stokes/RANS fluid iteration.

------------------------------ Begin Solver -----------------------------

Simulation Run using the Single-zone Driver
WARNING: SU2 was not compiled for an AVX-capable architecture. Performance could be better,
         see https://su2code.github.io/docs_v7/Build-SU2-Linux-MacOS/#compiler-optimizations
+-------------------------------------------------------------------------------------------------------+
|  Inner_Iter|   Time(sec)|    rms[Rho]|          CL|          CD|     Min CFL|     Max CFL|     Avg CFL|
+-------------------------------------------------------------------------------------------------------+
|           0|  4.2497e-02|   -1.764788|    1.877117|    0.263034|  2.0000e+00|  2.2000e+00|  2.2000e+00|
|           1|  3.7858e-02|   -1.754512|    1.876919|    0.264197|  2.0000e+00|  2.4200e+00|  2.4199e+00|
|           2|  3.6964e-02|   -1.746854|    1.876695|    0.266084|  2.0000e+00|  2.6620e+00|  2.6619e+00|
|           3|  3.6420e-02|   -1.747382|    1.877972|    0.267869|  2.0000e+00|  2.9282e+00|  2.9280e+00|
|           4|  3.6093e-02|   -1.748077|    1.880417|    0.270065|  2.0000e+00|  3.2210e+00|  3.2207e+00|
|           5|  3.5970e-02|   -1.747042|    1.884016|    0.272163|  2.2000e+00|  3.5431e+00|  3.5426e+00|
|           6|  3.6145e-02|   -1.741706|    1.887072|    0.274766|  2.2000e+00|  3.8974e+00|  3.8968e+00|
|           7|  3.6288e-02|   -1.739330|    1.890055|    0.277058|  2.2000e+00|  4.2872e+00|  4.2863e+00|
|           8|  3.6410e-02|   -1.739460|    1.895247|    0.280220|  2.4200e+00|  4.7159e+00|  4.7148e+00|
|           9|  3.6845e-02|   -1.739386|    1.901118|    0.282840|  2.6620e+00|  5.1875e+00|  5.1861e+00|
|          10|  3.7195e-02|   -1.739513|    1.905822|    0.286393|  2.9282e+00|  5.7062e+00|  5.7044e+00|
|          11|  3.7434e-02|   -1.735801|    1.907610|    0.288540|  2.9282e+00|  6.2769e+00|  6.2747e+00|
|          12|  3.7843e-02|   -1.739852|    1.909442|    0.291291|  3.2210e+00|  6.9045e+00|  6.9019e+00|
|          13|  3.8159e-02|   -1.736006|    1.909747|    0.293131|  3.5431e+00|  7.5950e+00|  7.5918e+00|
|          14|  3.8469e-02|   -1.727320|    1.905295|    0.295031|  3.8974e+00|  8.3545e+00|  8.3507e+00|
|          15|  3.8756e-02|   -1.726905|    1.897653|    0.295855|  4.2872e+00|  9.1899e+00|  9.1854e+00|
|          16|  3.9503e-02|   -1.721878|    1.887191|    0.295493|  4.7159e+00|  1.0109e+01|  1.0104e+01|
|          17|  3.9709e-02|   -1.702277|    1.875413|    0.294809|  5.1875e+00|  1.1120e+01|  1.1114e+01|
|          18|  3.9859e-02|   -1.691355|    1.864073|    0.293862|  5.7062e+00|  1.2232e+01|  1.2224e+01|
|          19|  3.9993e-02|   -1.683713|    1.851785|    0.291723|  6.2769e+00|  1.3455e+01|  1.3446e+01|
|          20|  4.0145e-02|   -1.675866|    1.839936|    0.288766|  6.9045e+00|  1.4800e+01|  1.4789e+01|
|          21|  4.0239e-02|   -1.651443|    1.828009|    0.283988|  7.5950e+00|  1.6281e+01|  1.6267e+01|
|          22|  4.0337e-02|   -1.603492|    1.819120|    0.278807|  8.3545e+00|  1.7909e+01|  1.7893e+01|
|          23|  4.0471e-02|   -1.596050|    1.813636|    0.273837|  9.1899e+00|  1.9699e+01|  1.9681e+01|
|          24|  4.0630e-02|   -1.589257|    1.811888|    0.267919|  1.0109e+01|  2.1669e+01|  2.1649e+01|
|          25|  4.0745e-02|   -1.576469|    1.814398|    0.262694|  1.1120e+01|  2.3836e+01|  2.3813e+01|
|          26|  4.0821e-02|   -1.548919|    1.821651|    0.258796|  1.2232e+01|  2.6220e+01|  2.6193e+01|
|          27|  4.0945e-02|   -1.510678|    1.832969|    0.255485|  1.3455e+01|  2.8842e+01|  2.8811e+01|
|          28|  4.1019e-02|   -1.517622|    1.844779|    0.253059|  1.3455e+01|  2.8842e+01|  2.8811e+01|
|          29|  4.1202e-02|   -1.499077|    1.858720|    0.255861|  1.4800e+01|  3.1726e+01|  3.1689e+01|
|          30|  4.1530e-02|   -1.479514|    1.876547|    0.263233|  7.4002e+00|  1.5863e+01|  1.5845e+01|
|          31|  4.1627e-02|   -1.478932|    1.884044|    0.264605|  8.1403e+00|  1.7449e+01|  1.7428e+01|
|          32|  4.1717e-02|   -1.573647|    1.881767|    0.257422|  8.9543e+00|  1.9194e+01|  1.9171e+01|
|          33|  4.1761e-02|   -1.612411|    1.882370|    0.254431|  9.8497e+00|  2.1114e+01|  2.1087e+01|
|          34|  4.1883e-02|   -1.632528|    1.885862|    0.252698|  1.0835e+01|  2.3225e+01|  2.3195e+01|
|          35|  4.1921e-02|   -1.649226|    1.894592|    0.255379|  1.1918e+01|  2.5548e+01|  2.5514e+01|
|          36|  4.1933e-02|   -1.637492|    1.901473|    0.256705|  1.3110e+01|  2.8102e+01|  2.8064e+01|
|          37|  4.1968e-02|   -1.651898|    1.906959|    0.255204|  6.5550e+00|  1.4051e+01|  1.4032e+01|
|          38|  4.1975e-02|   -1.623131|    1.907335|    0.250049|  7.2105e+00|  1.5456e+01|  1.5435e+01|
|          39|  4.1987e-02|   -1.711606|    1.910847|    0.248168|  7.9315e+00|  1.7002e+01|  1.6978e+01|
|          40|  4.1991e-02|   -1.750120|    1.915967|    0.246719|  8.7247e+00|  1.8702e+01|  1.8676e+01|
|          41|  4.1995e-02|   -1.726719|    1.923149|    0.247575|  9.5972e+00|  2.0572e+01|  2.0543e+01|
|          42|  4.2009e-02|   -1.759009|    1.930232|    0.247014|  1.0557e+01|  2.2630e+01|  2.2597e+01|
|          43|  4.2029e-02|   -1.747831|    1.938786|    0.247141|  1.1613e+01|  2.4893e+01|  2.4856e+01|
|          44|  4.2040e-02|   -1.746731|    1.946240|    0.245931|  1.2774e+01|  2.7382e+01|  2.7341e+01|
|          45|  4.2041e-02|   -1.717548|    1.955811|    0.247202|  1.4051e+01|  3.0120e+01|  3.0074e+01|
|          46|  4.2045e-02|   -1.687651|    1.965811|    0.249063|  1.4051e+01|  3.0120e+01|  3.0074e+01|
|          47|  4.2043e-02|   -1.688942|    1.976799|    0.253165|  1.5456e+01|  3.3132e+01|  3.3079e+01|
|          48|  4.2047e-02|   -1.687739|    1.990489|    0.258066|  7.7282e+00|  1.6566e+01|  1.6540e+01|
|          49|  4.2056e-02|   -1.676520|    1.997437|    0.262469|  8.5010e+00|  1.8223e+01|  1.8193e+01|
|          50|  4.2060e-02|   -1.767620|    2.003087|    0.265154|  9.3511e+00|  2.0045e+01|  2.0012e+01|
|          51|  4.2065e-02|   -1.789453|    2.007930|    0.267307|  1.0286e+01|  2.2049e+01|  2.2014e+01|
|          52|  4.2070e-02|   -1.790090|    2.011949|    0.268552|  1.1315e+01|  2.4254e+01|  2.4215e+01|
|          53|  4.2071e-02|   -1.811424|    2.015514|    0.269890|  1.2446e+01|  2.6680e+01|  2.6635e+01|
|          54|  4.2078e-02|   -1.810303|    2.017794|    0.272345|  1.3691e+01|  2.9348e+01|  2.9298e+01|
|          55|  4.2083e-02|   -1.750386|    2.020349|    0.274045|  1.4674e+01|  3.2282e+01|  3.2225e+01|
|          56|  4.2095e-02|   -1.687166|    2.023534|    0.272520|  7.3369e+00|  3.2282e+01|  3.2224e+01|
|          57|  4.2105e-02|   -1.647244|    2.024554|    0.268755|  3.6685e+00|  3.5511e+01|  3.5442e+01|
|          58|  4.2113e-02|   -1.624345|    2.022957|    0.262777|  1.8342e+00|  1.7755e+01|  1.7721e+01|
|          59|  4.2115e-02|   -1.654728|    2.022029|    0.258371|  2.0177e+00|  1.9531e+01|  1.9492e+01|
|          60|  4.2118e-02|   -1.662551|    2.021496|    0.255569|  2.2194e+00|  2.1484e+01|  2.1440e+01|
|          61|  4.2119e-02|   -1.699301|    2.022517|    0.254742|  2.4414e+00|  2.3632e+01|  2.3583e+01|
|          62|  4.2124e-02|   -1.682976|    2.023387|    0.253689|  2.6855e+00|  2.5996e+01|  2.5941e+01|
|          63|  4.2133e-02|   -1.709328|    2.023298|    0.251552|  2.9540e+00|  2.8595e+01|  2.8534e+01|
|          64|  4.2140e-02|   -1.714658|    2.025944|    0.250218|  3.2495e+00|  3.1455e+01|  3.1385e+01|
|          65|  4.2143e-02|   -1.740934|    2.030269|    0.251374|  3.5744e+00|  3.4600e+01|  3.4522e+01|
|          66|  4.2145e-02|   -1.718868|    2.032034|    0.249765|  3.9318e+00|  3.8060e+01|  3.7972e+01|
|          67|  4.2147e-02|   -1.712876|    2.029661|    0.245935|  1.9659e+00|  1.9030e+01|  1.8986e+01|
|          68|  4.2154e-02|   -1.703540|    2.027891|    0.242478|  2.1625e+00|  2.0933e+01|  2.0884e+01|
|          69|  4.2158e-02|   -1.763068|    2.026209|    0.240161|  2.3788e+00|  2.3026e+01|  2.2972e+01|
|          70|  4.2174e-02|   -1.825706|    2.025371|    0.239362|  2.6166e+00|  2.5329e+01|  2.5269e+01|
|          71|  4.2185e-02|   -1.835300|    2.025689|    0.240470|  2.8783e+00|  2.7862e+01|  2.7796e+01|
|          72|  4.2188e-02|   -1.861687|    2.023991|    0.238364|  3.1661e+00|  3.0648e+01|  3.0575e+01|
|          73|  4.2197e-02|   -1.842574|    2.022056|    0.235644|  3.4827e+00|  3.3713e+01|  3.3631e+01|
|          74|  4.2202e-02|   -1.885879|    2.023996|    0.235104|  3.8310e+00|  3.7084e+01|  3.6993e+01|
|          75|  4.2202e-02|   -1.851919|    2.027470|    0.237102|  1.9155e+00|  1.8542e+01|  1.8496e+01|
|          76|  4.2208e-02|   -1.934521|    2.028810|    0.236565|  2.1071e+00|  2.0396e+01|  2.0346e+01|
|          77|  4.2210e-02|   -1.914579|    2.030860|    0.237420|  2.3178e+00|  2.2436e+01|  2.2380e+01|
|          78|  4.2212e-02|   -2.004477|    2.031482|    0.237424|  2.5495e+00|  2.4680e+01|  2.4617e+01|
|          79|  4.2215e-02|   -1.975652|    2.034065|    0.239263|  2.8045e+00|  2.7148e+01|  2.7078e+01|
|          80|  4.2221e-02|   -1.958749|    2.036308|    0.240021|  3.0849e+00|  2.9862e+01|  2.9786e+01|
|          81|  4.2224e-02|   -1.870114|    2.041433|    0.243306|  3.3934e+00|  3.2849e+01|  3.2764e+01|
|          82|  4.2239e-02|   -1.840330|    2.045237|    0.246210|  1.6967e+00|  1.6424e+01|  1.6382e+01|
|          83|  4.2239e-02|   -1.821715|    2.048298|    0.249061|  1.8664e+00|  1.8067e+01|  1.8020e+01|
|          84|  4.2241e-02|   -1.873851|    2.050169|    0.249681|  2.0530e+00|  1.9873e+01|  1.9822e+01|
|          85|  4.2251e-02|   -1.938203|    2.052826|    0.251401|  2.2583e+00|  2.1861e+01|  2.1803e+01|
|          86|  4.2259e-02|   -1.947496|    2.054415|    0.251806|  2.4842e+00|  2.4047e+01|  2.3983e+01|
|          87|  4.2265e-02|   -1.963872|    2.056494|    0.252942|  2.7326e+00|  2.6451e+01|  2.6381e+01|
|          88|  4.2267e-02|   -1.949273|    2.058879|    0.254276|  3.0058e+00|  2.9097e+01|  2.9018e+01|
|          89|  4.2271e-02|   -1.926357|    2.060838|    0.255130|  3.3064e+00|  3.2006e+01|  3.1919e+01|
|          90|  4.2272e-02|   -1.918103|    2.063099|    0.256073|  1.6532e+00|  1.6003e+01|  1.5959e+01|
|          91|  4.2274e-02|   -1.945108|    2.064581|    0.256888|  1.8185e+00|  1.7603e+01|  1.7555e+01|
|          92|  4.2287e-02|   -1.963336|    2.066107|    0.257794|  2.0004e+00|  1.9364e+01|  1.9310e+01|
|          93|  4.2293e-02|   -1.980165|    2.067748|    0.258921|  2.2004e+00|  2.1300e+01|  2.1240e+01|
|          94|  4.2301e-02|   -1.938010|    2.069513|    0.260035|  2.4205e+00|  2.3430e+01|  2.3364e+01|
|          95|  4.2302e-02|   -1.980391|    2.070290|    0.261177|  2.6625e+00|  2.5773e+01|  2.5699e+01|
|          96|  4.2305e-02|   -1.982175|    2.072148|    0.262663|  2.9288e+00|  2.8351e+01|  2.8268e+01|
|          97|  4.2306e-02|   -1.982169|    2.073993|    0.264126|  3.2216e+00|  3.1186e+01|  3.1093e+01|
|          98|  4.2314e-02|   -1.936275|    2.075963|    0.265765|  3.5438e+00|  3.4304e+01|  3.4202e+01|
|          99|  4.2317e-02|   -1.813171|    2.078209|    0.267718|  3.8982e+00|  3.7735e+01|  3.7621e+01|
|         100|  4.2320e-02|   -1.814737|    2.080277|    0.269742|  1.9491e+00|  1.8867e+01|  1.8810e+01|
|         101|  4.2320e-02|   -1.771168|    2.081458|    0.271263|  1.0000e+00|  9.4336e+00|  9.4052e+00|
|         102|  4.2327e-02|   -1.889033|    2.081601|    0.272094|  1.1000e+00|  1.0377e+01|  1.0346e+01|
|         103|  4.2333e-02|   -2.017195|    2.081892|    0.272773|  1.2100e+00|  1.1415e+01|  1.1380e+01|
|         104|  4.2342e-02|   -2.085966|    2.082235|    0.273305|  1.3310e+00|  1.2556e+01|  1.2518e+01|
|         105|  4.2342e-02|   -2.123818|    2.082703|    0.273738|  1.4641e+00|  1.3812e+01|  1.3770e+01|
|         106|  4.2348e-02|   -2.148258|    2.082216|    0.274152|  1.6105e+00|  1.5193e+01|  1.5147e+01|
|         107|  4.2351e-02|   -2.156322|    2.081496|    0.274449|  1.7716e+00|  1.6712e+01|  1.6662e+01|
|         108|  4.2352e-02|   -2.164663|    2.080165|    0.274852|  1.9487e+00|  1.8383e+01|  1.8328e+01|
|         109|  4.2354e-02|   -2.173854|    2.078484|    0.274955|  2.1436e+00|  2.0222e+01|  2.0161e+01|
|         110|  4.2364e-02|   -2.158287|    2.076436|    0.274946|  2.3579e+00|  2.2244e+01|  2.2176e+01|
|         111|  4.2374e-02|   -2.147896|    2.074419|    0.274711|  2.5937e+00|  2.4468e+01|  2.4393e+01|
|         112|  4.2380e-02|   -2.105815|    2.071091|    0.274159|  2.8531e+00|  2.6915e+01|  2.6830e+01|
|         113|  4.2387e-02|   -2.097133|    2.066578|    0.273370|  3.1384e+00|  2.9607e+01|  2.9511e+01|
|         114|  4.2396e-02|   -2.068886|    2.061075|    0.272306|  1.5692e+00|  1.4803e+01|  1.4755e+01|
|         115|  4.2401e-02|   -2.049203|    2.057554|    0.271493|  1.7261e+00|  1.6284e+01|  1.6230e+01|
|         116|  4.2406e-02|   -2.091183|    2.055028|    0.270958|  1.8987e+00|  1.7912e+01|  1.7853e+01|
|         117|  4.2410e-02|   -2.098688|    2.051857|    0.270223|  2.0886e+00|  1.9703e+01|  1.9637e+01|
|         118|  4.2413e-02|   -2.105315|    2.048014|    0.269382|  2.2975e+00|  2.1674e+01|  2.1599e+01|
|         119|  4.2417e-02|   -2.075054|    2.042931|    0.268481|  2.5272e+00|  2.3841e+01|  2.3757e+01|
|         120|  4.2419e-02|   -2.049633|    2.036491|    0.267466|  2.7800e+00|  2.6225e+01|  2.6129e+01|
|         121|  4.2429e-02|   -2.015920|    2.028875|    0.266390|  3.0580e+00|  2.8848e+01|  2.8739e+01|
|         122|  4.2434e-02|   -1.982546|    2.021184|    0.264909|  3.3637e+00|  3.1732e+01|  3.1609e+01|
|         123|  4.2437e-02|   -1.969117|    2.012932|    0.262646|  1.6819e+00|  1.5866e+01|  1.5805e+01|
|         124|  4.2443e-02|   -1.943188|    2.007153|    0.260636|  1.8501e+00|  1.7453e+01|  1.7384e+01|
|         125|  4.2483e-02|   -2.012832|    2.001725|    0.258372|  2.0351e+00|  1.9198e+01|  1.9120e+01|
|         126|  4.2554e-02|   -2.020412|    1.996194|    0.255877|  2.2386e+00|  2.1118e+01|  2.1030e+01|
|         127|  4.2632e-02|   -1.966272|    1.990023|    0.253089|  2.4624e+00|  2.3230e+01|  2.3130e+01|
|         128|  4.2679e-02|   -1.915336|    1.984340|    0.250069|  2.7087e+00|  2.5553e+01|  2.5440e+01|
|         129|  4.2726e-02|   -1.892363|    1.977608|    0.246608|  1.3543e+00|  1.2776e+01|  1.2720e+01|
|         130|  4.2748e-02|   -1.868974|    1.973846|    0.244098|  1.4898e+00|  1.4054e+01|  1.3991e+01|
|         131|  4.2748e-02|   -1.905805|    1.970058|    0.242079|  1.6387e+00|  1.5459e+01|  1.5390e+01|
|         132|  4.2747e-02|   -1.936294|    1.966592|    0.240080|  1.8026e+00|  1.7005e+01|  1.6928e+01|
|         133|  4.2746e-02|   -1.916231|    1.962555|    0.238309|  1.9829e+00|  1.8706e+01|  1.8619e+01|
|         134|  4.2749e-02|   -1.894770|    1.959084|    0.236662|  2.1812e+00|  2.0576e+01|  2.0480e+01|
|         135|  4.2750e-02|   -1.847488|    1.954825|    0.234920|  2.3993e+00|  2.2634e+01|  2.2527e+01|
|         136|  4.2770e-02|   -1.829346|    1.950513|    0.232999|  2.6392e+00|  2.4897e+01|  2.4779e+01|
|         137|  4.2771e-02|   -1.797984|    1.946170|    0.231391|  2.9031e+00|  2.7387e+01|  2.7255e+01|
|         138|  4.2771e-02|   -1.791878|    1.942545|    0.230700|  2.9031e+00|  2.7387e+01|  2.7255e+01|
|         139|  4.2775e-02|   -1.743432|    1.939486|    0.230789|  1.4516e+00|  1.3694e+01|  1.3627e+01|
|         140|  4.2775e-02|   -1.762580|    1.937542|    0.231056|  1.0000e+00|  6.8468e+00|  6.8138e+00|
|         141|  4.2782e-02|   -1.840833|    1.936667|    0.231366|  1.1000e+00|  7.5315e+00|  7.4951e+00|
|         142|  4.2786e-02|   -1.915092|    1.937148|    0.231741|  1.2100e+00|  8.2846e+00|  8.2446e+00|
|         143|  4.2816e-02|   -1.939888|    1.937526|    0.232109|  1.3310e+00|  9.1131e+00|  9.0690e+00|
|         144|  4.2924e-02|   -1.935317|    1.936407|    0.232227|  1.4641e+00|  1.0024e+01|  9.9759e+00|
|         145|  4.3025e-02|   -1.935731|    1.934356|    0.232111|  1.6105e+00|  1.1027e+01|  1.0973e+01|
|         146|  4.3125e-02|   -1.938216|    1.932445|    0.231941|  1.7716e+00|  1.2130e+01|  1.2071e+01|
|         147|  4.3187e-02|   -1.942238|    1.931254|    0.231937|  1.9487e+00|  1.3342e+01|  1.3278e+01|
|         148|  4.3179e-02|   -1.940698|    1.930805|    0.231990|  2.1436e+00|  1.4677e+01|  1.4605e+01|
|         149|  4.3175e-02|   -1.929636|    1.930201|    0.232137|  2.3579e+00|  1.6144e+01|  1.6066e+01|
|         150|  4.3172e-02|   -1.927564|    1.930013|    0.232309|  2.5937e+00|  1.7759e+01|  1.7672e+01|
|         151|  4.3198e-02|   -1.920718|    1.930169|    0.232628|  1.2969e+00|  8.8794e+00|  8.8362e+00|
|         152|  4.3201e-02|   -1.902140|    1.930874|    0.232884|  1.0000e+00|  4.4397e+00|  4.4181e+00|
|         153|  4.3170e-02|   -1.940231|    1.931230|    0.233031|  1.0000e+00|  2.2199e+00|  2.2093e+00|
|         154|  4.3113e-02|   -1.981462|    1.932523|    0.233219|  1.0000e+00|  1.1099e+00|  1.1076e+00|
|         155|  4.3036e-02|   -2.010409|    1.933518|    0.233394|  1.1000e+00|  1.2209e+00|  1.2184e+00|
|         156|  4.2962e-02|   -2.028047|    1.934621|    0.233609|  1.2100e+00|  1.3430e+00|  1.3402e+00|
|         157|  4.2902e-02|   -2.041918|    1.935506|    0.233789|  1.3310e+00|  1.4773e+00|  1.4742e+00|
|         158|  4.2845e-02|   -2.052325|    1.936391|    0.233960|  1.4641e+00|  1.6250e+00|  1.6217e+00|
|         159|  4.2793e-02|   -2.059427|    1.936870|    0.234114|  1.6105e+00|  1.7875e+00|  1.7838e+00|
|         160|  4.2753e-02|   -2.060973|    1.937103|    0.234219|  1.7716e+00|  1.9663e+00|  1.9622e+00|
|         161|  4.2705e-02|   -2.059158|    1.936833|    0.234330|  1.9487e+00|  2.1629e+00|  2.1584e+00|
|         162|  4.2666e-02|   -2.058226|    1.936424|    0.234288|  2.1436e+00|  2.3792e+00|  2.3743e+00|
|         163|  4.2626e-02|   -2.062861|    1.936301|    0.234390|  2.3579e+00|  2.6172e+00|  2.6117e+00|
|         164|  4.2585e-02|   -2.059577|    1.936604|    0.234431|  2.5937e+00|  2.8789e+00|  2.8729e+00|
|         165|  4.2553e-02|   -2.051650|    1.936541|    0.234586|  2.8531e+00|  3.1668e+00|  3.1602e+00|
|         166|  4.2526e-02|   -2.041618|    1.936428|    0.234589|  3.1384e+00|  3.4834e+00|  3.4762e+00|
|         167|  4.2501e-02|   -2.034598|    1.936618|    0.234758|  3.4523e+00|  3.8318e+00|  3.8238e+00|
|         168|  4.2475e-02|   -2.033088|    1.937669|    0.234913|  3.7975e+00|  4.2149e+00|  4.2062e+00|
|         169|  4.2450e-02|   -2.029475|    1.938446|    0.235117|  1.8987e+00|  2.1075e+00|  2.1031e+00|
|         170|  4.2431e-02|   -2.022766|    1.938732|    0.235146|  1.0000e+00|  1.0537e+00|  1.0526e+00|
|         171|  4.2372e-02|   -2.041993|    1.939435|    0.235280|  1.0000e+00|  1.0000e+00|  1.0000e+00|
|         172|  4.2309e-02|   -2.051186|    1.940227|    0.235430|  1.0000e+00|  1.0000e+00|  1.0000e+00|
|         173|  4.2245e-02|   -2.056111|    1.940928|    0.235559|  1.0000e+00|  1.0000e+00|  1.0000e+00|
|         174|  4.2185e-02|   -2.060426|    1.941638|    0.235689|  1.0000e+00|  1.0000e+00|  1.0000e+00|
|         175|  4.2125e-02|   -2.061891|    1.942094|    0.235795|  1.0000e+00|  1.0000e+00|  1.0000e+00|
|         176|  4.2065e-02|   -2.065106|    1.942559|    0.235904|  1.0000e+00|  1.0000e+00|  1.0000e+00|
|         177|  4.2007e-02|   -2.067792|    1.942917|    0.235975|  1.0000e+00|  1.0000e+00|  1.0000e+00|
|         178|  4.1951e-02|   -2.069393|    1.943328|    0.236061|  1.0000e+00|  1.0000e+00|  1.0000e+00|
|         179|  4.1897e-02|   -2.069774|    1.943588|    0.236101|  1.0000e+00|  1.0000e+00|  1.0000e+00|
|         180|  4.1858e-02|   -2.069650|    1.943855|    0.236151|  1.0000e+00|  1.0000e+00|  1.0000e+00|
|         181|  4.1804e-02|   -2.070500|    1.944028|    0.236172|  1.0000e+00|  1.0000e+00|  1.0000e+00|
|         182|  4.1748e-02|   -2.069977|    1.944270|    0.236208|  1.0000e+00|  1.0000e+00|  1.0000e+00|
|         183|  4.1691e-02|   -2.069187|    1.944434|    0.236226|  1.0000e+00|  1.0000e+00|  1.0000e+00|
|         184|  4.1637e-02|   -2.067750|    1.944677|    0.236256|  1.0000e+00|  1.0000e+00|  1.0000e+00|
|         185|  4.1584e-02|   -2.066648|    1.944823|    0.236266|  1.0000e+00|  1.0000e+00|  1.0000e+00|
|         186|  4.1530e-02|   -2.065646|    1.945023|    0.236306|  1.0000e+00|  1.0000e+00|  1.0000e+00|
|         187|  4.1480e-02|   -2.066387|    1.945177|    0.236326|  1.0000e+00|  1.0000e+00|  1.0000e+00|
|         188|  4.1438e-02|   -2.066424|    1.945423|    0.236377|  1.0000e+00|  1.0000e+00|  1.0000e+00|
|         189|  4.1397e-02|   -2.066533|    1.945549|    0.236416|  1.0000e+00|  1.0000e+00|  1.0000e+00|
|         190|  4.1378e-02|   -2.065237|    1.945755|    0.236458|  1.0000e+00|  1.0000e+00|  1.0000e+00|
|         191|  4.1361e-02|   -2.063849|    1.945934|    0.236507|  1.0000e+00|  1.0000e+00|  1.0000e+00|
|         192|  4.1321e-02|   -2.060968|    1.946230|    0.236561|  1.0000e+00|  1.0000e+00|  1.0000e+00|
|         193|  4.1284e-02|   -2.057059|    1.946378|    0.236611|  1.1000e+00|  1.1000e+00|  1.1000e+00|
|         194|  4.1247e-02|   -2.054532|    1.946607|    0.236655|  1.2100e+00|  1.2100e+00|  1.2100e+00|
|         195|  4.1209e-02|   -2.052074|    1.946810|    0.236702|  1.3310e+00|  1.3310e+00|  1.3310e+00|
|         196|  4.1171e-02|   -2.048830|    1.947045|    0.236754|  1.4641e+00|  1.4641e+00|  1.4641e+00|
|         197|  4.1133e-02|   -2.045975|    1.947225|    0.236815|  1.6105e+00|  1.6105e+00|  1.6105e+00|
|         198|  4.1097e-02|   -2.042543|    1.947527|    0.236872|  1.7716e+00|  1.7716e+00|  1.7716e+00|
|         199|  4.1073e-02|   -2.039430|    1.947722|    0.236936|  1.9487e+00|  1.9487e+00|  1.9487e+00|
|         200|  4.1037e-02|   -2.036192|    1.948142|    0.236967|  2.1436e+00|  2.1436e+00|  2.1436e+00|
|         201|  4.1016e-02|   -2.032446|    1.948388|    0.237030|  2.3579e+00|  2.3579e+00|  2.3579e+00|
|         202|  4.0994e-02|   -2.028957|    1.948834|    0.237046|  2.5937e+00|  2.5937e+00|  2.5937e+00|
|         203|  4.0969e-02|   -2.025289|    1.949084|    0.237092|  2.8531e+00|  2.8531e+00|  2.8531e+00|
|         204|  4.0945e-02|   -2.021308|    1.949611|    0.237106|  3.1384e+00|  3.1384e+00|  3.1384e+00|
|         205|  4.0933e-02|   -2.017060|    1.950306|    0.237154|  3.4523e+00|  3.4523e+00|  3.4523e+00|
|         206|  4.0920e-02|   -2.009649|    1.951214|    0.237178|  3.7975e+00|  3.7975e+00|  3.7975e+00|
|         207|  4.0908e-02|   -2.000325|    1.951874|    0.237228|  4.1772e+00|  4.1772e+00|  4.1772e+00|
|         208|  4.0905e-02|   -1.991608|    1.952351|    0.237179|  4.5950e+00|  4.5950e+00|  4.5950e+00|
|         209|  4.0927e-02|   -1.990221|    1.953177|    0.237173|  5.0545e+00|  5.0545e+00|  5.0545e+00|
|         210|  4.0946e-02|   -1.981739|    1.954716|    0.237233|  5.5599e+00|  5.5599e+00|  5.5599e+00|
|         211|  4.0948e-02|   -1.965714|    1.956231|    0.237219|  6.1159e+00|  6.1159e+00|  6.1159e+00|
|         212|  4.0964e-02|   -1.951937|    1.957357|    0.237122|  6.7275e+00|  6.7275e+00|  6.7275e+00|
|         213|  4.0975e-02|   -1.950358|    1.958497|    0.236964|  7.4002e+00|  7.4002e+00|  7.4002e+00|
|         214|  4.0986e-02|   -1.949934|    1.960303|    0.236986|  8.1403e+00|  8.1403e+00|  8.1403e+00|
|         215|  4.0999e-02|   -1.929519|    1.962805|    0.237045|  8.9543e+00|  8.9543e+00|  8.9543e+00|
|         216|  4.1010e-02|   -1.909693|    1.964964|    0.237092|  9.8497e+00|  9.8497e+00|  9.8497e+00|
|         217|  4.1056e-02|   -1.882205|    1.967256|    0.237202|  1.0835e+01|  1.0835e+01|  1.0835e+01|
|         218|  4.1068e-02|   -1.868741|    1.970055|    0.237580|  1.1918e+01|  1.1918e+01|  1.1918e+01|
|         219|  4.1081e-02|   -1.824862|    1.973805|    0.238310|  1.3110e+01|  1.3110e+01|  1.3110e+01|
|         220|  4.1093e-02|   -1.791107|    1.977597|    0.239350|  1.4421e+01|  1.4421e+01|  1.4421e+01|
|         221|  4.1103e-02|   -1.784429|    1.981259|    0.240601|  1.5863e+01|  1.5863e+01|  1.5863e+01|
|         222|  4.1115e-02|   -1.741337|    1.985099|    0.242294|  1.7449e+01|  1.7449e+01|  1.7449e+01|
|         223|  4.1126e-02|   -1.735324|    1.989529|    0.244243|  1.9194e+01|  1.9194e+01|  1.9194e+01|
|         224|  4.1147e-02|   -1.701667|    1.994406|    0.246260|  2.1114e+01|  2.1114e+01|  2.1114e+01|
|         225|  4.1156e-02|   -1.672264|    1.998255|    0.248219|  2.3225e+01|  2.3225e+01|  2.3225e+01|
|         226|  4.1165e-02|   -1.693087|    2.001407|    0.250014|  2.5548e+01|  2.5548e+01|  2.5548e+01|
|         227|  4.1176e-02|   -1.697272|    2.004615|    0.251563|  2.8102e+01|  2.8102e+01|  2.8102e+01|
|         228|  4.1206e-02|   -1.672991|    2.008037|    0.252915|  2.8102e+01|  2.8102e+01|  2.8102e+01|
|         229|  4.1243e-02|   -1.657774|    2.011086|    0.253916|  3.0913e+01|  3.0913e+01|  3.0913e+01|
|         230|  4.1253e-02|   -1.657489|    2.013801|    0.254797|  1.5456e+01|  1.5456e+01|  1.5456e+01|
|         231|  4.1266e-02|   -1.675182|    2.015562|    0.255365|  1.7002e+01|  1.7002e+01|  1.7002e+01|
|         232|  4.1276e-02|   -1.775497|    2.017853|    0.255988|  1.8702e+01|  1.8702e+01|  1.8702e+01|
|         233|  4.1285e-02|   -1.791473|    2.019911|    0.256628|  2.0572e+01|  2.0572e+01|  2.0572e+01|
|         234|  4.1295e-02|   -1.812236|    2.022360|    0.257505|  2.2630e+01|  2.2630e+01|  2.2630e+01|
|         235|  4.1315e-02|   -1.823087|    2.024437|    0.258359|  2.4893e+01|  2.4893e+01|  2.4893e+01|
|         236|  4.1324e-02|   -1.795125|    2.026714|    0.259308|  2.7382e+01|  2.7382e+01|  2.7382e+01|
|         237|  4.1334e-02|   -1.753482|    2.028373|    0.260059|  3.0120e+01|  3.0120e+01|  3.0120e+01|
|         238|  4.1344e-02|   -1.775831|    2.031005|    0.260752|  3.3132e+01|  3.3132e+01|  3.3132e+01|
|         239|  4.1352e-02|   -1.793227|    2.033698|    0.261245|  3.3132e+01|  3.3132e+01|  3.3132e+01|
|         240|  4.1361e-02|   -1.778186|    2.035925|    0.261476|  3.3132e+01|  3.3132e+01|  3.3132e+01|
|         241|  4.1372e-02|   -1.809122|    2.036347|    0.261320|  3.3132e+01|  3.3132e+01|  3.3132e+01|
|         242|  4.1387e-02|   -1.823590|    2.035397|    0.260841|  3.3132e+01|  3.6445e+01|  3.6445e+01|
|         243|  4.1419e-02|   -1.877138|    2.032310|    0.259837|  1.6566e+01|  1.8223e+01|  1.8222e+01|
|         244|  4.1438e-02|   -1.896489|    2.029473|    0.258897|  1.8223e+01|  2.0045e+01|  2.0045e+01|
|         245|  4.1455e-02|   -1.952872|    2.027336|    0.258004|  2.0045e+01|  2.2049e+01|  2.2049e+01|
|         246|  4.1512e-02|   -1.954968|    2.024845|    0.256975|  2.2049e+01|  2.4254e+01|  2.4254e+01|
|         247|  4.1569e-02|   -1.919237|    2.020200|    0.255526|  2.4254e+01|  2.6680e+01|  2.6679e+01|
|         248|  4.1627e-02|   -1.942937|    2.013904|    0.253387|  2.4254e+01|  2.9348e+01|  2.9347e+01|
|         249|  4.1685e-02|   -1.896328|    2.005767|    0.250394|  2.6680e+01|  3.2282e+01|  3.2281e+01|
|         250|  4.1759e-02|   -1.944134|    1.997263|    0.246758|  1.3340e+01|  1.6141e+01|  1.6140e+01|
|         251|  4.1812e-02|   -1.880316|    1.991190|    0.243910|  1.4674e+01|  1.7755e+01|  1.7754e+01|
|         252|  4.1819e-02|   -1.980144|    1.987069|    0.241460|  1.6141e+01|  1.9531e+01|  1.9530e+01|
|         253|  4.1824e-02|   -1.912131|    1.982671|    0.239064|  1.7755e+01|  2.1484e+01|  2.1483e+01|
|         254|  4.1830e-02|   -1.887917|    1.978513|    0.236731|  1.9531e+01|  2.3632e+01|  2.3631e+01|
|         255|  4.1836e-02|   -1.768234|    1.974430|    0.234281|  2.1484e+01|  2.5996e+01|  2.5994e+01|
|         256|  4.1843e-02|   -1.784689|    1.971206|    0.231858|  2.3632e+01|  2.8595e+01|  2.8593e+01|
|         257|  4.1874e-02|   -1.739354|    1.968326|    0.229535|  1.1816e+01|  1.4298e+01|  1.4297e+01|
|         258|  4.1925e-02|   -1.753650|    1.967417|    0.228248|  5.9081e+00|  7.1488e+00|  7.1483e+00|
|         259|  4.1933e-02|   -1.826281|    1.967126|    0.227676|  2.9540e+00|  3.5744e+00|  3.5742e+00|
|         260|  4.1911e-02|   -1.996043|    1.967906|    0.227499|  1.4770e+00|  1.7872e+00|  1.7871e+00|
|         261|  4.1881e-02|   -2.194212|    1.968974|    0.227515|  1.6247e+00|  1.9659e+00|  1.9658e+00|
|         262|  4.1852e-02|   -2.251776|    1.970577|    0.227617|  1.7872e+00|  2.1625e+00|  2.1624e+00|
|         263|  4.1822e-02|   -2.264985|    1.971600|    0.227690|  1.9659e+00|  2.3788e+00|  2.3786e+00|
|         264|  4.1803e-02|   -2.263438|    1.972239|    0.227741|  2.1625e+00|  2.6166e+00|  2.6165e+00|
|         265|  4.1783e-02|   -2.244665|    1.971864|    0.227629|  2.3788e+00|  2.8783e+00|  2.8781e+00|
|         266|  4.1774e-02|   -2.230357|    1.971213|    0.227509|  2.6166e+00|  3.1661e+00|  3.1659e+00|
|         267|  4.1755e-02|   -2.239848|    1.970516|    0.227364|  2.8783e+00|  3.4827e+00|  3.4825e+00|
|         268|  4.1745e-02|   -2.248476|    1.970490|    0.227348|  3.1661e+00|  3.8310e+00|  3.8308e+00|
|         269|  4.1751e-02|   -2.238854|    1.969952|    0.227271|  3.4827e+00|  4.2141e+00|  4.2139e+00|
|         270|  4.1778e-02|   -2.228183|    1.969259|    0.227195|  3.8310e+00|  4.6355e+00|  4.6352e+00|
|         271|  4.1800e-02|   -2.228399|    1.968621|    0.227118|  4.2141e+00|  5.0991e+00|  5.0988e+00|
|         272|  4.1833e-02|   -2.239076|    1.969108|    0.227184|  4.6355e+00|  5.6090e+00|  5.6086e+00|
|         273|  4.1879e-02|   -2.233001|    1.969468|    0.227268|  5.0991e+00|  6.1699e+00|  6.1695e+00|
|         274|  4.1916e-02|   -2.217874|    1.969358|    0.227323|  5.6090e+00|  6.7869e+00|  6.7865e+00|
|         275|  4.1966e-02|   -2.210217|    1.968955|    0.227385|  6.1699e+00|  7.4656e+00|  7.4651e+00|
|         276|  4.2007e-02|   -2.214591|    1.969292|    0.227613|  6.7869e+00|  8.2121e+00|  8.2116e+00|
|         277|  4.2051e-02|   -2.214522|    1.970137|    0.227943|  7.4656e+00|  9.0333e+00|  9.0328e+00|
|         278|  4.2090e-02|   -2.206348|    1.970399|    0.228280|  8.2121e+00|  9.9367e+00|  9.9361e+00|
|         279|  4.2131e-02|   -2.194582|    1.970501|    0.228634|  9.0333e+00|  1.0930e+01|  1.0930e+01|
|         280|  4.2186e-02|   -2.180601|    1.970855|    0.229188|  9.9367e+00|  1.2023e+01|  1.2023e+01|
|         281|  4.2224e-02|   -2.165158|    1.972175|    0.230060|  1.0930e+01|  1.3226e+01|  1.3225e+01|
|         282|  4.2263e-02|   -2.155192|    1.973331|    0.231276|  1.2023e+01|  1.4548e+01|  1.4547e+01|
|         283|  4.2304e-02|   -2.128830|    1.974782|    0.232855|  1.3226e+01|  1.6003e+01|  1.6002e+01|
|         284|  4.2341e-02|   -2.117718|    1.976377|    0.234866|  1.4548e+01|  1.7603e+01|  1.7602e+01|
|         285|  4.2379e-02|   -2.111387|    1.979181|    0.237293|  1.6003e+01|  1.9364e+01|  1.9363e+01|
|         286|  4.2443e-02|   -2.093367|    1.982265|    0.239952|  1.7603e+01|  2.1300e+01|  2.1299e+01|
|         287|  4.2490e-02|   -2.058328|    1.985231|    0.242641|  1.9364e+01|  2.3430e+01|  2.3429e+01|
|         288|  4.2505e-02|   -2.047659|    1.988181|    0.245091|  2.1300e+01|  2.5773e+01|  2.5772e+01|
|         289|  4.2505e-02|   -2.024750|    1.990779|    0.247088|  2.3430e+01|  2.8351e+01|  2.8349e+01|
|         290|  4.2503e-02|   -1.982239|    1.993717|    0.248302|  2.3430e+01|  2.8351e+01|  2.8349e+01|
|         291|  4.2502e-02|   -1.940347|    1.995531|    0.248692|  2.5773e+01|  3.1186e+01|  3.1184e+01|
|         292|  4.2502e-02|   -1.934861|    1.996552|    0.248352|  1.2887e+01|  1.5593e+01|  1.5592e+01|
|         293|  4.2518e-02|   -1.932260|    1.997167|    0.247736|  1.4175e+01|  1.7152e+01|  1.7151e+01|
|         294|  4.2541e-02|   -1.992948|    1.998490|    0.247285|  7.0876e+00|  8.5760e+00|  8.5754e+00|
|         295|  4.2590e-02|   -2.008702|    1.999440|    0.246977|  3.5438e+00|  4.2880e+00|  4.2877e+00|
|         296|  4.2622e-02|   -2.057975|    2.000451|    0.246826|  1.7719e+00|  2.1440e+00|  2.1439e+00|
|         297|  4.2639e-02|   -2.117701|    2.001406|    0.246820|  1.9491e+00|  2.3584e+00|  2.3582e+00|
|         298|  4.2659e-02|   -2.150614|    2.002156|    0.246811|  2.1440e+00|  2.5942e+00|  2.5941e+00|
|         299|  4.2684e-02|   -2.164284|    2.002590|    0.246741|  2.3584e+00|  2.8537e+00|  2.8535e+00|
|         300|  4.2708e-02|   -2.171314|    2.002898|    0.246660|  2.5942e+00|  3.1390e+00|  3.1388e+00|
|         301|  4.2740e-02|   -2.172287|    2.003058|    0.246563|  2.8537e+00|  3.4529e+00|  3.4527e+00|
|         302|  4.2764e-02|   -2.167354|    2.003225|    0.246474|  3.1390e+00|  3.7982e+00|  3.7980e+00|
|         303|  4.2799e-02|   -2.157853|    2.003257|    0.246378|  3.4529e+00|  4.1781e+00|  4.1778e+00|
|         304|  4.2837e-02|   -2.145936|    2.003370|    0.246311|  3.7982e+00|  4.5959e+00|  4.5955e+00|
|         305|  4.2861e-02|   -2.135333|    2.003436|    0.246250|  4.1781e+00|  5.0555e+00|  5.0551e+00|
|         306|  4.2865e-02|   -2.130099|    2.003745|    0.246221|  4.5959e+00|  5.5610e+00|  5.5606e+00|
|         307|  4.2868e-02|   -2.126925|    2.004035|    0.246194|  5.0555e+00|  6.1171e+00|  6.1167e+00|
|         308|  4.2873e-02|   -2.118316|    2.004475|    0.246198|  5.5610e+00|  6.7288e+00|  6.7283e+00|
|         309|  4.2913e-02|   -2.104604|    2.004513|    0.246205|  6.1171e+00|  7.4017e+00|  7.4012e+00|
|         310|  4.2999e-02|   -2.088901|    2.004563|    0.246286|  6.7288e+00|  8.1419e+00|  8.1413e+00|
|         311|  4.3087e-02|   -2.072865|    2.005328|    0.246498|  7.4017e+00|  8.9561e+00|  8.9554e+00|
|         312|  4.3172e-02|   -2.061817|    2.006617|    0.246861|  8.1419e+00|  9.8517e+00|  9.8510e+00|
|         313|  4.3257e-02|   -2.060263|    2.007942|    0.247297|  8.9561e+00|  1.0837e+01|  1.0836e+01|
|         314|  4.3342e-02|   -2.038944|    2.009130|    0.247854|  4.4780e+00|  5.4184e+00|  5.4180e+00|
|         315|  4.3415e-02|   -1.993133|    2.009678|    0.248220|  2.2390e+00|  2.7092e+00|  2.7090e+00|
|         316|  4.3467e-02|   -2.001690|    2.009955|    0.248426|  2.4629e+00|  2.9801e+00|  2.9799e+00|
|         317|  4.3519e-02|   -2.023779|    2.011021|    0.248726|  2.7092e+00|  3.2781e+00|  3.2779e+00|
|         318|  4.3571e-02|   -2.040540|    2.012195|    0.249074|  2.9801e+00|  3.6060e+00|  3.6057e+00|
|         319|  4.3631e-02|   -2.059348|    2.012929|    0.249366|  3.2781e+00|  3.9665e+00|  3.9663e+00|
|         320|  4.3690e-02|   -2.072278|    2.013548|    0.249663|  3.6060e+00|  4.3632e+00|  4.3629e+00|
|         321|  4.3750e-02|   -2.081085|    2.013985|    0.249954|  3.9665e+00|  4.7995e+00|  4.7992e+00|
|         322|  4.3820e-02|   -2.071259|    2.014854|    0.250273|  4.3632e+00|  5.2795e+00|  5.2791e+00|
|         323|  4.3891e-02|   -2.054887|    2.015531|    0.250601|  4.7995e+00|  5.8074e+00|  5.8070e+00|
|         324|  4.3937e-02|   -2.045265|    2.016267|    0.250926|  5.2795e+00|  6.3882e+00|  6.3877e+00|
|         325|  4.3965e-02|   -2.035385|    2.016450|    0.251232|  5.8074e+00|  7.0270e+00|  7.0265e+00|
|         326|  4.3979e-02|   -1.996100|    2.016686|    0.251571|  6.3882e+00|  7.7297e+00|  7.7291e+00|
|         327|  4.3992e-02|   -1.956243|    2.017578|    0.252029|  7.0270e+00|  8.5026e+00|  8.5021e+00|
|         328|  4.4024e-02|   -1.947701|    2.018908|    0.252600|  7.7297e+00|  9.3529e+00|  9.3523e+00|
|         329|  4.4039e-02|   -1.935663|    2.019727|    0.253115|  8.5026e+00|  1.0288e+01|  1.0287e+01|
|         330|  4.4069e-02|   -1.918612|    2.020059|    0.253574|  9.3529e+00|  1.1317e+01|  1.1316e+01|
|         331|  4.4106e-02|   -1.911484|    2.020492|    0.253999|  1.0288e+01|  1.2449e+01|  1.2448e+01|
|         332|  4.4142e-02|   -1.916012|    2.022171|    0.254573|  5.1441e+00|  6.2244e+00|  6.2239e+00|
|         333|  4.4179e-02|   -1.894171|    2.023752|    0.254997|  2.5721e+00|  3.1122e+00|  3.1120e+00|
|         334|  4.4203e-02|   -1.932058|    2.024976|    0.255251|  1.2860e+00|  1.5561e+00|  1.5560e+00|
|         335|  4.4219e-02|   -1.971184|    2.025937|    0.255403|  1.0000e+00|  1.0000e+00|  1.0000e+00|
|         336|  4.4235e-02|   -1.996069|    2.026512|    0.255494|  1.0000e+00|  1.0000e+00|  1.0000e+00|
|         337|  4.4234e-02|   -2.011195|    2.027123|    0.255565|  1.1000e+00|  1.1000e+00|  1.1000e+00|
|         338|  4.4231e-02|   -2.020571|    2.027579|    0.255620|  1.2100e+00|  1.2100e+00|  1.2100e+00|
|         339|  4.4250e-02|   -2.026657|    2.028040|    0.255661|  1.3310e+00|  1.3310e+00|  1.3310e+00|
|         340|  4.4277e-02|   -2.029514|    2.028404|    0.255699|  1.4641e+00|  1.4641e+00|  1.4641e+00|
|         341|  4.4292e-02|   -2.028428|    2.028693|    0.255713|  1.6105e+00|  1.6105e+00|  1.6105e+00|
|         342|  4.4304e-02|   -2.021725|    2.028916|    0.255738|  1.7716e+00|  1.7716e+00|  1.7716e+00|
|         343|  4.4317e-02|   -2.012681|    2.029042|    0.255742|  1.9487e+00|  1.9487e+00|  1.9487e+00|
|         344|  4.4309e-02|   -2.003502|    2.029145|    0.255767|  2.1436e+00|  2.1436e+00|  2.1436e+00|
|         345|  4.4353e-02|   -1.993395|    2.029253|    0.255778|  2.3579e+00|  2.3579e+00|  2.3579e+00|
|         346|  4.4411e-02|   -1.980819|    2.029424|    0.255805|  2.5937e+00|  2.5937e+00|  2.5937e+00|
|         347|  4.4469e-02|   -1.963612|    2.029547|    0.255828|  2.8531e+00|  2.8531e+00|  2.8531e+00|
|         348|  4.4500e-02|   -1.944567|    2.029677|    0.255876|  3.1384e+00|  3.1384e+00|  3.1384e+00|
|         349|  4.4513e-02|   -1.935253|    2.029883|    0.255924|  3.4523e+00|  3.4523e+00|  3.4523e+00|
|         350|  4.4532e-02|   -1.926701|    2.030205|    0.255995|  3.7975e+00|  3.7975e+00|  3.7975e+00|
|         351|  4.4550e-02|   -1.920074|    2.030438|    0.256064|  4.1772e+00|  4.1772e+00|  4.1772e+00|
|         352|  4.4589e-02|   -1.914385|    2.030633|    0.256144|  4.5950e+00|  4.5950e+00|  4.5950e+00|
|         353|  4.4661e-02|   -1.916449|    2.030758|    0.256211|  5.0545e+00|  5.0545e+00|  5.0545e+00|
|         354|  4.4745e-02|   -1.914417|    2.031149|    0.256309|  5.5599e+00|  5.5599e+00|  5.5599e+00|
|         355|  4.4827e-02|   -1.905800|    2.031659|    0.256443|  6.1159e+00|  6.1159e+00|  6.1159e+00|
|         356|  4.4901e-02|   -1.891992|    2.032071|    0.256587|  6.7275e+00|  6.7275e+00|  6.7275e+00|
|         357|  4.4989e-02|   -1.882565|    2.032193|    0.256660|  7.4002e+00|  7.4002e+00|  7.4002e+00|
|         358|  4.5042e-02|   -1.852249|    2.032377|    0.256720|  8.1403e+00|  8.1403e+00|  8.1403e+00|
|         359|  4.5088e-02|   -1.828630|    2.032748|    0.256837|  8.9543e+00|  8.9543e+00|  8.9543e+00|
|         360|  4.5119e-02|   -1.829265|    2.033233|    0.257000|  9.8497e+00|  9.8497e+00|  9.8497e+00|
|         361|  4.5124e-02|   -1.806634|    2.033426|    0.257036|  1.0000e+00|  1.0000e+00|  1.0000e+00|
|         362|  4.5098e-02|   -1.777275|    2.033396|    0.257069|  1.1000e+00|  1.1000e+00|  1.1000e+00|
|         363|  4.5076e-02|   -1.811388|    2.033963|    0.257190|  1.2100e+00|  1.2100e+00|  1.2100e+00|
|         364|  4.5058e-02|   -1.835715|    2.034616|    0.257276|  1.3310e+00|  1.3310e+00|  1.3310e+00|
|         365|  4.5053e-02|   -1.855681|    2.035086|    0.257357|  1.4641e+00|  1.4641e+00|  1.4641e+00|
|         366|  4.5044e-02|   -1.871310|    2.035542|    0.257409|  1.6105e+00|  1.6105e+00|  1.6105e+00|
|         367|  4.5027e-02|   -1.885211|    2.035912|    0.257491|  1.7716e+00|  1.7716e+00|  1.7716e+00|
|         368|  4.5002e-02|   -1.890258|    2.036071|    0.257520|  1.9487e+00|  1.9487e+00|  1.9487e+00|
|         369|  4.4995e-02|   -1.894630|    2.036217|    0.257593|  2.1436e+00|  2.1436e+00|  2.1436e+00|
|         370|  4.4992e-02|   -1.896624|    2.036288|    0.257618|  2.3579e+00|  2.3579e+00|  2.3579e+00|
|         371|  4.4994e-02|   -1.895021|    2.036281|    0.257705|  2.5937e+00|  2.5937e+00|  2.5937e+00|
|         372|  4.5008e-02|   -1.890946|    2.036208|    0.257733|  2.8531e+00|  2.8531e+00|  2.8531e+00|
|         373|  4.5013e-02|   -1.883064|    2.036143|    0.257842|  3.1384e+00|  3.1384e+00|  3.1384e+00|
|         374|  4.5016e-02|   -1.870629|    2.036054|    0.257858|  3.4523e+00|  3.4523e+00|  3.4523e+00|
|         375|  4.5047e-02|   -1.857864|    2.036036|    0.257985|  3.7975e+00|  3.7975e+00|  3.7975e+00|
|         376|  4.5063e-02|   -1.850086|    2.035818|    0.258007|  4.1772e+00|  4.1772e+00|  4.1772e+00|
|         377|  4.5094e-02|   -1.836598|    2.035661|    0.258141|  4.5950e+00|  4.5950e+00|  4.5950e+00|
|         378|  4.5115e-02|   -1.816315|    2.035346|    0.258196|  5.0545e+00|  5.0545e+00|  5.0545e+00|
|         379|  4.5122e-02|   -1.797877|    2.035256|    0.258414|  5.5599e+00|  5.5599e+00|  5.5599e+00|
|         380|  4.5131e-02|   -1.773980|    2.035119|    0.258605|  6.1159e+00|  6.1159e+00|  6.1159e+00|
|         381|  4.5141e-02|   -1.758832|    2.035081|    0.258948|  6.7275e+00|  6.7275e+00|  6.7275e+00|
|         382|  4.5172e-02|   -1.770896|    2.034616|    0.259236|  7.4002e+00|  7.4002e+00|  7.4002e+00|
|         383|  4.5249e-02|   -1.770171|    2.034304|    0.259683|  8.1403e+00|  8.1403e+00|  8.1403e+00|
|         384|  4.5307e-02|   -1.748681|    2.033695|    0.260090|  8.9543e+00|  8.9543e+00|  8.9543e+00|
|         385|  4.5379e-02|   -1.725502|    2.033493|    0.260658|  9.8497e+00|  9.8497e+00|  9.8497e+00|
|         386|  4.5440e-02|   -1.725643|    2.032772|    0.261124|  1.0835e+01|  1.0835e+01|  1.0835e+01|
|         387|  4.5471e-02|   -1.698720|    2.031941|    0.261624|  1.1918e+01|  1.1918e+01|  1.1918e+01|
|         388|  4.5499e-02|   -1.725220|    2.030243|    0.261873|  1.3110e+01|  1.3110e+01|  1.3110e+01|
|         389|  4.5558e-02|   -1.710221|    2.028531|    0.262133|  1.4421e+01|  1.4421e+01|  1.4421e+01|
|         390|  4.5639e-02|   -1.673391|    2.026437|    0.262270|  1.5863e+01|  1.5863e+01|  1.5863e+01|
|         391|  4.5719e-02|   -1.655014|    2.025204|    0.262430|  1.7449e+01|  1.7449e+01|  1.7449e+01|
|         392|  4.5767e-02|   -1.653788|    2.023568|    0.262422|  1.9194e+01|  1.9194e+01|  1.9194e+01|
|         393|  4.5822e-02|   -1.638448|    2.021561|    0.262299|  1.9194e+01|  2.1114e+01|  2.1114e+01|
|         394|  4.5905e-02|   -1.673228|    2.018967|    0.261730|  1.9194e+01|  2.3225e+01|  2.3225e+01|
|         395|  4.5983e-02|   -1.661478|    2.017200|    0.261005|  2.1114e+01|  2.5548e+01|  2.5547e+01|
|         396|  4.6045e-02|   -1.669632|    2.015292|    0.259825|  2.3225e+01|  2.8102e+01|  2.8101e+01|
|         397|  4.6058e-02|   -1.695959|    2.013550|    0.258718|  2.5548e+01|  3.0913e+01|  3.0911e+01|
|         398|  4.6082e-02|   -1.649660|    2.011396|    0.257342|  2.5548e+01|  3.0913e+01|  3.0911e+01|
|         399|  4.6107e-02|   -1.699184|    2.011405|    0.256505|  2.5548e+01|  3.0913e+01|  3.0911e+01|
|         400|  4.6144e-02|   -1.764164|    2.012262|    0.255581|  1.2774e+01|  1.5456e+01|  1.5455e+01|
|         401|  4.6171e-02|   -1.850892|    2.013781|    0.255192|  1.4051e+01|  1.7002e+01|  1.7000e+01|
|         402|  4.6184e-02|   -1.957323|    2.015359|    0.254791|  1.5456e+01|  1.8702e+01|  1.8700e+01|
|         403|  4.6229e-02|   -1.988905|    2.017365|    0.254614|  1.5456e+01|  2.0572e+01|  2.0570e+01|
|         404|  4.6279e-02|   -1.983856|    2.019294|    0.254506|  1.7002e+01|  2.2630e+01|  2.2627e+01|
|         405|  4.6320e-02|   -1.987351|    2.021818|    0.254726|  1.8702e+01|  2.4893e+01|  2.4889e+01|
|         406|  4.6336e-02|   -1.992864|    2.024293|    0.255429|  2.0572e+01|  2.7382e+01|  2.7378e+01|
|         407|  4.6364e-02|   -1.994902|    2.027671|    0.256069|  2.2630e+01|  3.0120e+01|  3.0115e+01|
|         408|  4.6412e-02|   -1.966131|    2.030624|    0.256919|  2.2630e+01|  3.0120e+01|  3.0115e+01|
|         409|  4.6461e-02|   -1.963868|    2.033250|    0.257624|  2.2630e+01|  3.0120e+01|  3.0115e+01|
|         410|  4.6482e-02|   -2.013476|    2.034906|    0.258095|  2.2630e+01|  3.0120e+01|  3.0115e+01|
|         411|  4.6492e-02|   -1.989959|    2.036874|    0.258700|  2.4893e+01|  3.3132e+01|  3.3126e+01|
|         412|  4.6507e-02|   -2.011278|    2.038264|    0.259063|  1.2446e+01|  1.6566e+01|  1.6563e+01|
|         413|  4.6552e-02|   -2.041849|    2.039527|    0.259213|  1.3691e+01|  1.8223e+01|  1.8219e+01|
|         414|  4.6580e-02|   -2.080716|    2.040400|    0.259435|  1.5060e+01|  2.0045e+01|  2.0041e+01|
|         415|  4.6619e-02|   -2.092227|    2.041696|    0.259465|  1.6566e+01|  2.2049e+01|  2.2045e+01|
|         416|  4.6676e-02|   -2.096371|    2.042193|    0.259704|  1.8223e+01|  2.4254e+01|  2.4250e+01|
|         417|  4.6747e-02|   -2.082635|    2.042305|    0.259547|  2.0045e+01|  2.6680e+01|  2.6675e+01|
|         418|  4.6795e-02|   -2.050221|    2.041522|    0.259354|  2.2049e+01|  2.9348e+01|  2.9342e+01|
|         419|  4.6861e-02|   -2.059339|    2.040911|    0.258802|  2.4254e+01|  3.2282e+01|  3.2276e+01|
|         420|  4.6924e-02|   -2.057161|    2.040528|    0.258253|  2.4254e+01|  3.2282e+01|  3.2276e+01|
|         421|  4.6981e-02|   -2.070744|    2.039803|    0.257396|  2.4254e+01|  3.2282e+01|  3.2276e+01|
|         422|  4.7011e-02|   -2.044789|    2.037901|    0.256520|  2.6680e+01|  3.5511e+01|  3.5503e+01|
|         423|  4.7036e-02|   -2.040591|    2.035139|    0.255153|  1.3340e+01|  1.7755e+01|  1.7752e+01|
|         424|  4.7073e-02|   -2.047423|    2.032266|    0.254127|  1.4674e+01|  1.9531e+01|  1.9527e+01|
|         425|  4.7130e-02|   -2.106758|    2.030884|    0.253278|  1.6141e+01|  2.1484e+01|  2.1479e+01|
|         426|  4.7178e-02|   -2.130331|    2.030434|    0.252757|  1.7755e+01|  2.3632e+01|  2.3627e+01|
|         427|  4.7204e-02|   -2.122553|    2.029862|    0.251997|  1.7755e+01|  2.5996e+01|  2.5989e+01|
|         428|  4.7238e-02|   -2.104100|    2.027634|    0.251070|  1.9531e+01|  2.8595e+01|  2.8588e+01|
|         429|  4.7274e-02|   -2.082070|    2.024940|    0.249668|  1.9531e+01|  3.1455e+01|  3.1447e+01|
|         430|  4.7309e-02|   -2.068384|    2.021828|    0.248217|  2.1484e+01|  3.4600e+01|  3.4591e+01|
|         431|  4.7313e-02|   -2.048472|    2.019968|    0.246622|  2.1484e+01|  3.4600e+01|  3.4591e+01|
|         432|  4.7317e-02|   -2.041551|    2.018729|    0.245259|  2.1484e+01|  3.4600e+01|  3.4591e+01|
|         433|  4.7330e-02|   -2.027757|    2.018677|    0.244114|  2.3632e+01|  3.8060e+01|  3.8049e+01|
|         434|  4.7363e-02|   -2.018225|    2.018785|    0.243535|  1.1816e+01|  1.9030e+01|  1.9025e+01|
|         435|  4.7365e-02|   -2.011990|    2.019422|    0.243208|  1.2998e+01|  2.0933e+01|  2.0927e+01|
|         436|  4.7376e-02|   -2.053588|    2.019832|    0.243321|  1.4298e+01|  2.3026e+01|  2.3020e+01|
|         437|  4.7382e-02|   -2.070286|    2.020803|    0.243631|  1.5727e+01|  2.5329e+01|  2.5322e+01|
|         438|  4.7412e-02|   -2.074043|    2.021720|    0.244131|  1.7300e+01|  2.7862e+01|  2.7854e+01|
|         439|  4.7427e-02|   -2.057796|    2.023114|    0.244693|  1.7300e+01|  3.0648e+01|  3.0639e+01|
|         440|  4.7435e-02|   -2.050041|    2.024041|    0.245668|  1.7300e+01|  3.3713e+01|  3.3703e+01|
|         441|  4.7438e-02|   -2.027054|    2.025019|    0.246640|  1.9030e+01|  3.7084e+01|  3.7073e+01|
|         442|  4.7440e-02|   -2.019043|    2.025708|    0.247805|  1.9030e+01|  3.7084e+01|  3.7073e+01|
|         443|  4.7445e-02|   -1.989365|    2.026348|    0.248891|  2.0933e+01|  4.0793e+01|  4.0780e+01|
|         444|  4.7451e-02|   -1.983392|    2.026303|    0.249781|  2.3026e+01|  4.4872e+01|  4.4858e+01|
|         445|  4.7456e-02|   -1.957275|    2.026118|    0.250079|  1.1513e+01|  2.2436e+01|  2.2429e+01|
|         446|  4.7482e-02|   -1.960299|    2.025019|    0.250188|  1.2665e+01|  2.4680e+01|  2.4672e+01|
|         447|  4.7530e-02|   -1.981217|    2.024698|    0.250098|  1.3931e+01|  2.7148e+01|  2.7139e+01|
|         448|  4.7569e-02|   -2.005111|    2.024695|    0.250045|  1.5324e+01|  2.9862e+01|  2.9853e+01|
|         449|  4.7587e-02|   -1.975972|    2.024811|    0.249746|  1.6856e+01|  3.2849e+01|  3.2838e+01|
|         450|  4.7610e-02|   -1.962625|    2.024386|    0.249398|  1.8542e+01|  3.6133e+01|  3.6122e+01|
|         451|  4.7656e-02|   -1.937272|    2.023714|    0.248712|  2.0396e+01|  3.9747e+01|  3.9734e+01|
|         452|  4.7721e-02|   -1.926044|    2.022730|    0.248059|  2.2436e+01|  4.3721e+01|  4.3708e+01|
|         453|  4.7776e-02|   -1.906654|    2.022686|    0.247441|  2.4680e+01|  4.8094e+01|  4.8079e+01|
|         454|  4.7800e-02|   -1.897018|    2.023211|    0.247198|  2.7148e+01|  5.2903e+01|  5.2886e+01|
|         455|  4.7846e-02|   -1.873828|    2.024996|    0.247115|  1.3574e+01|  2.6451e+01|  2.6443e+01|
|         456|  4.7894e-02|   -1.857700|    2.025883|    0.247334|  1.4931e+01|  2.9097e+01|  2.9087e+01|
|         457|  4.7920e-02|   -1.876222|    2.026996|    0.247528|  1.6424e+01|  3.2006e+01|  3.1996e+01|
|         458|  4.7946e-02|   -1.886828|    2.027981|    0.247913|  1.8067e+01|  3.5207e+01|  3.5196e+01|
|         459|  4.7971e-02|   -1.869383|    2.029398|    0.248227|  1.9873e+01|  3.8728e+01|  3.8715e+01|
|         460|  4.8002e-02|   -1.853919|    2.029482|    0.248555|  2.1861e+01|  4.2600e+01|  4.2587e+01|
|         461|  4.8031e-02|   -1.842443|    2.029878|    0.248903|  2.4047e+01|  4.6860e+01|  4.6845e+01|
|         462|  4.8073e-02|   -1.823555|    2.029572|    0.249452|  2.4047e+01|  5.1546e+01|  5.1529e+01|
|         463|  4.8076e-02|   -1.814698|    2.030495|    0.249926|  2.4047e+01|  5.6701e+01|  5.6681e+01|
|         464|  4.8096e-02|   -1.796334|    2.031315|    0.250519|  2.4047e+01|  5.6701e+01|  5.6681e+01|
|         465|  4.8101e-02|   -1.792409|    2.032339|    0.251022|  2.6451e+01|  6.2371e+01|  6.2348e+01|
|         466|  4.8119e-02|   -1.779162|    2.033264|    0.251571|  2.6451e+01|  6.2371e+01|  6.2348e+01|
|         467|  4.8120e-02|   -1.786599|    2.034507|    0.251752|  1.3226e+01|  3.1186e+01|  3.1174e+01|
|         468|  4.8124e-02|   -1.777644|    2.034326|    0.251935|  1.4548e+01|  3.4304e+01|  3.4290e+01|
|         469|  4.8125e-02|   -1.831178|    2.034430|    0.251969|  1.4175e+01|  3.7735e+01|  3.7717e+01|
|         470|  4.8131e-02|   -1.854765|    2.034959|    0.251995|  1.4175e+01|  4.1508e+01|  4.1488e+01|
|         471|  4.8138e-02|   -1.874170|    2.036738|    0.251633|  7.0876e+00|  4.5659e+01|  4.5631e+01|
|         472|  4.8150e-02|   -1.870038|    2.035286|    0.251141|  7.0876e+00|  5.0225e+01|  5.0193e+01|
|         473|  4.8157e-02|   -1.880880|    2.034510|    0.250422|  7.7964e+00|  5.5247e+01|  5.5211e+01|
|         474|  4.8166e-02|   -1.877003|    2.033245|    0.249614|  8.5760e+00|  6.0772e+01|  6.0732e+01|
|         475|  4.8172e-02|   -1.882991|    2.032078|    0.248811|  9.4336e+00|  6.6849e+01|  6.6804e+01|
|         476|  4.8180e-02|   -1.875279|    2.031112|    0.248236|  9.4336e+00|  6.6849e+01|  6.6804e+01|
|         477|  4.8185e-02|   -1.874205|    2.031077|    0.247802|  9.4336e+00|  6.6849e+01|  6.6804e+01|
|         478|  4.8219e-02|   -1.865833|    2.031096|    0.247840|  4.7168e+00|  3.3425e+01|  3.3402e+01|
|         479|  4.8226e-02|   -1.865417|    2.030821|    0.247547|  5.1885e+00|  3.6767e+01|  3.6742e+01|
|         480|  4.8238e-02|   -1.887536|    2.029609|    0.247242|  5.7073e+00|  4.0444e+01|  4.0415e+01|
|         481|  4.8249e-02|   -1.906573|    2.029444|    0.247073|  6.2781e+00|  4.4488e+01|  4.4455e+01|
|         482|  4.8297e-02|   -1.925971|    2.028449|    0.247012|  6.9059e+00|  4.8937e+01|  4.8899e+01|
|         483|  4.8333e-02|   -1.947957|    2.028055|    0.247037|  7.5965e+00|  5.3831e+01|  5.3788e+01|
|         484|  4.8362e-02|   -1.979974|    2.026736|    0.247297|  8.3561e+00|  5.9214e+01|  5.9165e+01|
|         485|  4.8417e-02|   -1.990331|    2.026598|    0.247701|  8.3561e+00|  5.9214e+01|  5.9165e+01|
|         486|  4.8457e-02|   -1.920219|    2.025128|    0.248328|  9.1917e+00|  6.5135e+01|  6.5081e+01|
|         487|  4.8494e-02|   -1.840300|    2.026906|    0.248766|  1.0111e+01|  7.1648e+01|  7.1588e+01|
|         488|  4.8523e-02|   -1.816971|    2.028743|    0.249440|  1.1122e+01|  7.8813e+01|  7.8745e+01|
|         489|  4.8567e-02|   -1.820717|    2.031378|    0.250133|  5.5610e+00|  3.9407e+01|  3.9373e+01|
|         490|  4.8619e-02|   -1.800668|    2.033492|    0.250660|  6.1171e+00|  4.3347e+01|  4.3309e+01|
|         491|  4.8663e-02|   -1.805548|    2.036231|    0.250982|  6.7288e+00|  4.7682e+01|  4.7639e+01|
|         492|  4.8702e-02|   -1.827870|    2.037416|    0.251279|  7.4017e+00|  5.2450e+01|  5.2402e+01|
|         493|  4.8752e-02|   -1.842211|    2.039165|    0.251548|  8.1419e+00|  5.7695e+01|  5.7642e+01|
|         494|  4.8806e-02|   -1.838264|    2.040854|    0.251840|  8.9561e+00|  6.3465e+01|  6.3404e+01|
|         495|  4.8854e-02|   -1.822168|    2.042895|    0.251995|  9.8517e+00|  6.9811e+01|  6.9743e+01|
|         496|  4.8868e-02|   -1.815983|    2.042733|    0.252434|  1.0837e+01|  7.6792e+01|  7.6714e+01|
|         497|  4.8888e-02|   -1.809321|    2.043573|    0.252340|  1.0837e+01|  7.6792e+01|  7.6714e+01|
|         498|  4.8887e-02|   -1.800039|    2.043488|    0.251969|  5.4184e+00|  3.8396e+01|  3.8357e+01|
|         499|  4.8888e-02|   -1.790687|    2.043104|    0.251525|  5.9603e+00|  4.2236e+01|  4.2192e+01|
|         500|  4.8918e-02|   -1.815301|    2.042401|    0.251046|  6.5563e+00|  4.6459e+01|  4.6411e+01|
+-----------------------------------------------------------------------+
|        File Writing Summary       |              Filename             |
+-----------------------------------------------------------------------+
|SU2 binary restart                 |restart_flow.dat                   |

Writing the forces breakdown file (forces_breakdown.dat).
|Paraview                           |flow.vtu                           |

Writing the forces breakdown file (forces_breakdown.dat).
|Paraview surface                   |surface_flow.vtu                   |

Writing the forces breakdown file (forces_breakdown.dat).
+-----------------------------------------------------------------------+
+-------------------------------------------------------------------------------------------------------+
|  Inner_Iter|   Time(sec)|    rms[Rho]|          CL|          CD|     Min CFL|     Max CFL|     Avg CFL|
+-------------------------------------------------------------------------------------------------------+
|         501|  4.9006e-02|   -1.839831|    2.040944|    0.250354|  3.2781e+00|  2.3230e+01|  2.3205e+01|
|         502|  4.9002e-02|   -1.842106|    2.039918|    0.249789|  1.6391e+00|  1.1615e+01|  1.1603e+01|
|         503|  4.9000e-02|   -1.873611|    2.039985|    0.249510|  1.0000e+00|  5.8074e+00|  5.8014e+00|
|         504|  4.8981e-02|   -1.995350|    2.041117|    0.249534|  1.1000e+00|  6.3882e+00|  6.3815e+00|
|         505|  4.8966e-02|   -2.255031|    2.042475|    0.249583|  1.2100e+00|  7.0270e+00|  7.0196e+00|
|         506|  4.8960e-02|   -2.381922|    2.043408|    0.249585|  1.3310e+00|  7.7297e+00|  7.7216e+00|
|         507|  4.8962e-02|   -2.475316|    2.043146|    0.249391|  1.4641e+00|  8.5026e+00|  8.4938e+00|
|         508|  4.8956e-02|   -2.511290|    2.042462|    0.249162|  1.6105e+00|  9.3529e+00|  9.3432e+00|
|         509|  4.8952e-02|   -2.510770|    2.041092|    0.248793|  1.7716e+00|  1.0288e+01|  1.0277e+01|
|         510|  4.8955e-02|   -2.520159|    2.040118|    0.248500|  1.9487e+00|  1.1317e+01|  1.1305e+01|
|         511|  4.8961e-02|   -2.552695|    2.039889|    0.248273|  2.1436e+00|  1.2449e+01|  1.2436e+01|
|         512|  4.8961e-02|   -2.597422|    2.040421|    0.248237|  2.3579e+00|  1.3694e+01|  1.3679e+01|
|         513|  4.8960e-02|   -2.582473|    2.040601|    0.248140|  2.5937e+00|  1.5063e+01|  1.5047e+01|
|         514|  4.8960e-02|   -2.562843|    2.040572|    0.248041|  2.8531e+00|  1.6569e+01|  1.6552e+01|
|         515|  4.8971e-02|   -2.536639|    2.040069|    0.248007|  3.1384e+00|  1.8226e+01|  1.8207e+01|
|         516|  4.8988e-02|   -2.520406|    2.039472|    0.248084|  3.4523e+00|  2.0049e+01|  2.0028e+01|
|         517|  4.9021e-02|   -2.520871|    2.039463|    0.248191|  3.7975e+00|  2.2054e+01|  2.2031e+01|
|         518|  4.9037e-02|   -2.540283|    2.040112|    0.248614|  4.1772e+00|  2.4259e+01|  2.4234e+01|
|         519|  4.9052e-02|   -2.526607|    2.040442|    0.249117|  4.5950e+00|  2.6685e+01|  2.6657e+01|
|         520|  4.9068e-02|   -2.503704|    2.040195|    0.249621|  5.0545e+00|  2.9353e+01|  2.9323e+01|
|         521|  4.9107e-02|   -2.499726|    2.039778|    0.250057|  5.5599e+00|  3.2289e+01|  3.2255e+01|
|         522|  4.9147e-02|   -2.514041|    2.039883|    0.250589|  6.1159e+00|  3.5518e+01|  3.5480e+01|
|         523|  4.9183e-02|   -2.510917|    2.039908|    0.251057|  6.7275e+00|  3.9069e+01|  3.9028e+01|
|         524|  4.9214e-02|   -2.490007|    2.039144|    0.251480|  3.3637e+00|  1.9535e+01|  1.9514e+01|
|         525|  4.9245e-02|   -2.457543|    2.038427|    0.251623|  3.7001e+00|  2.1488e+01|  2.1465e+01|
|         526|  4.9264e-02|   -2.500590|    2.038213|    0.251830|  4.0701e+00|  2.3637e+01|  2.3611e+01|
|         527|  4.9279e-02|   -2.499172|    2.038117|    0.251917|  4.4772e+00|  2.6001e+01|  2.5972e+01|
|         528|  4.9294e-02|   -2.480629|    2.037586|    0.251997|  4.9249e+00|  2.8601e+01|  2.8569e+01|
|         529|  4.9310e-02|   -2.436869|    2.036731|    0.251987|  5.4174e+00|  3.1461e+01|  3.1425e+01|
|         530|  4.9328e-02|   -2.397051|    2.035707|    0.252131|  5.9591e+00|  3.4607e+01|  3.4567e+01|
|         531|  4.9342e-02|   -2.361975|    2.034980|    0.252399|  6.5550e+00|  3.8068e+01|  3.8023e+01|
|         532|  4.9348e-02|   -2.324164|    2.034739|    0.252800|  3.2775e+00|  1.9034e+01|  1.9011e+01|
|         533|  4.9342e-02|   -2.269002|    2.034260|    0.252815|  3.6052e+00|  2.0937e+01|  2.0912e+01|
|         534|  4.9336e-02|   -2.265724|    2.033450|    0.252568|  3.9658e+00|  2.3031e+01|  2.3003e+01|
|         535|  4.9327e-02|   -2.251098|    2.032336|    0.252204|  4.3624e+00|  2.5334e+01|  2.5303e+01|
|         536|  4.9324e-02|   -2.211304|    2.031212|    0.251884|  4.7986e+00|  2.7867e+01|  2.7833e+01|
|         537|  4.9319e-02|   -2.173719|    2.029576|    0.251176|  5.2784e+00|  3.0654e+01|  3.0616e+01|
|         538|  4.9318e-02|   -2.115887|    2.027303|    0.249952|  2.6392e+00|  1.5327e+01|  1.5308e+01|
|         539|  4.9314e-02|   -2.066751|    2.024791|    0.248589|  1.3196e+00|  7.6635e+00|  7.6539e+00|
|         540|  4.9313e-02|   -2.120342|    2.023685|    0.247728|  1.0000e+00|  3.8318e+00|  3.8270e+00|
|         541|  4.9300e-02|   -2.260632|    2.023956|    0.247323|  1.1000e+00|  4.2149e+00|  4.2097e+00|
|         542|  4.9286e-02|   -2.465971|    2.024401|    0.247032|  1.2100e+00|  4.6364e+00|  4.6306e+00|
|         543|  4.9279e-02|   -2.522900|    2.024427|    0.246710|  1.3310e+00|  5.1001e+00|  5.0937e+00|
|         544|  4.9269e-02|   -2.527789|    2.024002|    0.246353|  1.4641e+00|  5.6101e+00|  5.6031e+00|
|         545|  4.9262e-02|   -2.539602|    2.023496|    0.245993|  1.6105e+00|  6.1711e+00|  6.1634e+00|
|         546|  4.9259e-02|   -2.544118|    2.023037|    0.245649|  1.7716e+00|  6.7882e+00|  6.7797e+00|
|         547|  4.9256e-02|   -2.536418|    2.022589|    0.245277|  1.9487e+00|  7.4670e+00|  7.4577e+00|
|         548|  4.9271e-02|   -2.531839|    2.022125|    0.244891|  2.1436e+00|  8.2137e+00|  8.2035e+00|
|         549|  4.9287e-02|   -2.518252|    2.021549|    0.244448|  2.3579e+00|  9.0351e+00|  9.0238e+00|
|         550|  4.9299e-02|   -2.497201|    2.020723|    0.243956|  2.5937e+00|  9.9386e+00|  9.9262e+00|
|         551|  4.9311e-02|   -2.455410|    2.019520|    0.243268|  2.8531e+00|  1.0932e+01|  1.0919e+01|
|         552|  4.9330e-02|   -2.417841|    2.018106|    0.242496|  3.1384e+00|  1.2026e+01|  1.2011e+01|
|         553|  4.9357e-02|   -2.393691|    2.017164|    0.241627|  3.4523e+00|  1.3228e+01|  1.3212e+01|
|         554|  4.9396e-02|   -2.367528|    2.016651|    0.240848|  3.7975e+00|  1.4551e+01|  1.4533e+01|
|         555|  4.9425e-02|   -2.336669|    2.015751|    0.239894|  4.1772e+00|  1.6006e+01|  1.5986e+01|
|         556|  4.9444e-02|   -2.303169|    2.014615|    0.239016|  4.5950e+00|  1.7607e+01|  1.7585e+01|
|         557|  4.9459e-02|   -2.270922|    2.013323|    0.238079|  5.0545e+00|  1.9368e+01|  1.9343e+01|
|         558|  4.9472e-02|   -2.219513|    2.012191|    0.237514|  5.5599e+00|  2.1304e+01|  2.1278e+01|
|         559|  4.9488e-02|   -2.173754|    2.011412|    0.237217|  6.1159e+00|  2.3435e+01|  2.3405e+01|
|         560|  4.9501e-02|   -2.163312|    2.011767|    0.237421|  6.7275e+00|  2.5778e+01|  2.5746e+01|
|         561|  4.9518e-02|   -2.136276|    2.012430|    0.238101|  7.4002e+00|  2.8356e+01|  2.8321e+01|
|         562|  4.9531e-02|   -2.099852|    2.013076|    0.239376|  3.7001e+00|  1.4178e+01|  1.4160e+01|
|         563|  4.9544e-02|   -2.067855|    2.013354|    0.240432|  4.0701e+00|  1.5596e+01|  1.5576e+01|
|         564|  4.9569e-02|   -2.136581|    2.014652|    0.241612|  4.4772e+00|  1.7155e+01|  1.7134e+01|
|         565|  4.9601e-02|   -2.138241|    2.016821|    0.242945|  4.9249e+00|  1.8871e+01|  1.8847e+01|
|         566|  4.9621e-02|   -2.098233|    2.018615|    0.244454|  5.4174e+00|  2.0758e+01|  2.0732e+01|
|         567|  4.9636e-02|   -2.042928|    2.019637|    0.245897|  5.9591e+00|  2.2834e+01|  2.2805e+01|
|         568|  4.9649e-02|   -2.022118|    2.020540|    0.247308|  6.5550e+00|  2.5117e+01|  2.5086e+01|
|         569|  4.9650e-02|   -2.002523|    2.021500|    0.248646|  3.2775e+00|  1.2559e+01|  1.2543e+01|
|         570|  4.9644e-02|   -1.992954|    2.022852|    0.249714|  1.6387e+00|  6.2793e+00|  6.2715e+00|
|         571|  4.9630e-02|   -2.036359|    2.024412|    0.250358|  1.0000e+00|  3.1397e+00|  3.1357e+00|
|         572|  4.9610e-02|   -2.077400|    2.025743|    0.250730|  1.1000e+00|  3.4536e+00|  3.4493e+00|
|         573|  4.9597e-02|   -2.108751|    2.027265|    0.251058|  1.2100e+00|  3.7990e+00|  3.7942e+00|
|         574|  4.9583e-02|   -2.124957|    2.028285|    0.251308|  1.3310e+00|  4.1789e+00|  4.1737e+00|
|         575|  4.9569e-02|   -2.125594|    2.028716|    0.251534|  1.4641e+00|  4.5968e+00|  4.5910e+00|
|         576|  4.9559e-02|   -2.115943|    2.028736|    0.251683|  1.6105e+00|  5.0564e+00|  5.0501e+00|
|         577|  4.9550e-02|   -2.103191|    2.028770|    0.251721|  1.7716e+00|  5.5621e+00|  5.5552e+00|
|         578|  4.9541e-02|   -2.086705|    2.029012|    0.251739|  1.9487e+00|  6.1183e+00|  6.1107e+00|
|         579|  4.9544e-02|   -2.069744|    2.029353|    0.251848|  2.1436e+00|  6.7301e+00|  6.7217e+00|
|         580|  4.9544e-02|   -2.051951|    2.029846|    0.252006|  1.0718e+00|  3.3651e+00|  3.3609e+00|
|         581|  4.9531e-02|   -2.036466|    2.030096|    0.252019|  1.0000e+00|  1.6825e+00|  1.6806e+00|
|         582|  4.9508e-02|   -2.054727|    2.030397|    0.252014|  1.0000e+00|  1.0000e+00|  1.0000e+00|
|         583|  4.9482e-02|   -2.067622|    2.030802|    0.252051|  1.0000e+00|  1.0000e+00|  1.0000e+00|
|         584|  4.9469e-02|   -2.074355|    2.030980|    0.252050|  1.0000e+00|  1.0000e+00|  1.0000e+00|
|         585|  4.9456e-02|   -2.077764|    2.031089|    0.252042|  1.0000e+00|  1.0000e+00|  1.0000e+00|
|         586|  4.9448e-02|   -2.079331|    2.031286|    0.252065|  1.0000e+00|  1.0000e+00|  1.0000e+00|
|         587|  4.9427e-02|   -2.080153|    2.031479|    0.252089|  1.1000e+00|  1.1000e+00|  1.1000e+00|
|         588|  4.9408e-02|   -2.081443|    2.031614|    0.252111|  1.2100e+00|  1.2100e+00|  1.2100e+00|
|         589|  4.9388e-02|   -2.081850|    2.031804|    0.252134|  1.3310e+00|  1.3310e+00|  1.3310e+00|
|         590|  4.9370e-02|   -2.081988|    2.032006|    0.252161|  1.4641e+00|  1.4641e+00|  1.4641e+00|
|         591|  4.9351e-02|   -2.079898|    2.032213|    0.252157|  1.6105e+00|  1.6105e+00|  1.6105e+00|
|         592|  4.9330e-02|   -2.077129|    2.032324|    0.252151|  1.7716e+00|  1.7716e+00|  1.7716e+00|
|         593|  4.9316e-02|   -2.073704|    2.032483|    0.252141|  1.9487e+00|  1.9487e+00|  1.9487e+00|
|         594|  4.9314e-02|   -2.068073|    2.032625|    0.252131|  2.1436e+00|  2.1436e+00|  2.1436e+00|
|         595|  4.9309e-02|   -2.060420|    2.032767|    0.252176|  2.3579e+00|  2.3579e+00|  2.3579e+00|
|         596|  4.9305e-02|   -2.052255|    2.032794|    0.252202|  2.5937e+00|  2.5937e+00|  2.5937e+00|
|         597|  4.9306e-02|   -2.051066|    2.032903|    0.252237|  2.8531e+00|  2.8531e+00|  2.8531e+00|
|         598|  4.9306e-02|   -2.048720|    2.033030|    0.252208|  3.1384e+00|  3.1384e+00|  3.1384e+00|
|         599|  4.9323e-02|   -2.045508|    2.033273|    0.252184|  3.4523e+00|  3.4523e+00|  3.4523e+00|
|         600|  4.9330e-02|   -2.042068|    2.033456|    0.252137|  3.7975e+00|  3.7975e+00|  3.7975e+00|
|         601|  4.9338e-02|   -2.033750|    2.033658|    0.252120|  4.1772e+00|  4.1772e+00|  4.1772e+00|
|         602|  4.9342e-02|   -2.024990|    2.033767|    0.252063|  4.5950e+00|  4.5950e+00|  4.5950e+00|
|         603|  4.9348e-02|   -2.014065|    2.034019|    0.251902|  5.0545e+00|  5.0545e+00|  5.0545e+00|
|         604|  4.9356e-02|   -2.001900|    2.034237|    0.251671|  5.5599e+00|  5.5599e+00|  5.5599e+00|
|         605|  4.9370e-02|   -1.989972|    2.034411|    0.251482|  6.1159e+00|  6.1159e+00|  6.1159e+00|
|         606|  4.9376e-02|   -1.976941|    2.034551|    0.251266|  6.7275e+00|  6.7275e+00|  6.7275e+00|
|         607|  4.9389e-02|   -1.972700|    2.034845|    0.250947|  1.0000e+00|  1.0000e+00|  1.0000e+00|
|         608|  4.9376e-02|   -1.972896|    2.034938|    0.250857|  1.1000e+00|  1.1000e+00|  1.1000e+00|
|         609|  4.9364e-02|   -1.991775|    2.035196|    0.250782|  1.2100e+00|  1.2100e+00|  1.2100e+00|
|         610|  4.9356e-02|   -2.004581|    2.035491|    0.250715|  1.3310e+00|  1.3310e+00|  1.3310e+00|
|         611|  4.9349e-02|   -2.013476|    2.035802|    0.250675|  1.4641e+00|  1.4641e+00|  1.4641e+00|
|         612|  4.9339e-02|   -2.019065|    2.036014|    0.250634|  1.6105e+00|  1.6105e+00|  1.6105e+00|
|         613|  4.9328e-02|   -2.020958|    2.036197|    0.250593|  1.7716e+00|  1.7716e+00|  1.7716e+00|
|         614|  4.9306e-02|   -2.022403|    2.036399|    0.250556|  1.9487e+00|  1.9487e+00|  1.9487e+00|
|         615|  4.9282e-02|   -2.024009|    2.036631|    0.250476|  2.1436e+00|  2.1436e+00|  2.1436e+00|
|         616|  4.9259e-02|   -2.023989|    2.036824|    0.250394|  2.3579e+00|  2.3579e+00|  2.3579e+00|
|         617|  4.9243e-02|   -2.022464|    2.037012|    0.250309|  2.5937e+00|  2.5937e+00|  2.5937e+00|
|         618|  4.9226e-02|   -2.018578|    2.037159|    0.250283|  2.8531e+00|  2.8531e+00|  2.8531e+00|
|         619|  4.9210e-02|   -2.010357|    2.037345|    0.250264|  3.1384e+00|  3.1384e+00|  3.1384e+00|
|         620|  4.9193e-02|   -1.997282|    2.037573|    0.250246|  3.4523e+00|  3.4523e+00|  3.4523e+00|
|         621|  4.9177e-02|   -1.986033|    2.037891|    0.250180|  3.7975e+00|  3.7975e+00|  3.7975e+00|
|         622|  4.9167e-02|   -1.975676|    2.038213|    0.250126|  4.1772e+00|  4.1772e+00|  4.1772e+00|
|         623|  4.9158e-02|   -1.968254|    2.038572|    0.250161|  4.5950e+00|  4.5950e+00|  4.5950e+00|
|         624|  4.9147e-02|   -1.967270|    2.038960|    0.250232|  5.0545e+00|  5.0545e+00|  5.0545e+00|
|         625|  4.9139e-02|   -1.958614|    2.039450|    0.250300|  5.5599e+00|  5.5599e+00|  5.5599e+00|
|         626|  4.9134e-02|   -1.952106|    2.040022|    0.250332|  6.1159e+00|  6.1159e+00|  6.1159e+00|
|         627|  4.9126e-02|   -1.940197|    2.040625|    0.250395|  6.7275e+00|  6.7275e+00|  6.7275e+00|
|         628|  4.9125e-02|   -1.926606|    2.041265|    0.250625|  7.4002e+00|  7.4002e+00|  7.4002e+00|
[...]
|        4829|  4.9536e-02|   -1.921810|    2.044284|    0.259162|  1.4421e+01|  1.4421e+01|  1.4421e+01|
|        4830|  4.9536e-02|   -1.931107|    2.043682|    0.259448|  1.5863e+01|  1.5863e+01|  1.5863e+01|
|        4831|  4.9535e-02|   -1.944283|    2.043032|    0.259753|  1.7449e+01|  1.7449e+01|  1.7449e+01|
|        4832|  4.9535e-02|   -1.920354|    2.042152|    0.260069|  1.9194e+01|  1.9194e+01|  1.9194e+01|
|        4833|  4.9534e-02|   -1.917384|    2.042505|    0.260468|  2.1114e+01|  2.1114e+01|  2.1114e+01|
|        4834|  4.9533e-02|   -1.900020|    2.042666|    0.260866|  2.3225e+01|  2.3225e+01|  2.3225e+01|
|        4835|  4.9533e-02|   -1.891436|    2.042574|    0.261062|  2.5548e+01|  2.5548e+01|  2.5548e+01|
|        4836|  4.9533e-02|   -1.893621|    2.041665|    0.261027|  2.8102e+01|  2.8102e+01|  2.8102e+01|
|        4837|  4.9534e-02|   -1.919911|    2.041231|    0.260956|  3.0913e+01|  3.0913e+01|  3.0913e+01|
|        4838|  4.9538e-02|   -1.886234|    2.040966|    0.260752|  3.4004e+01|  3.4004e+01|  3.4004e+01|
|        4839|  4.9542e-02|   -1.853206|    2.041038|    0.260527|  1.7002e+01|  1.7002e+01|  1.7002e+01|
|        4840|  4.9544e-02|   -1.884635|    2.040487|    0.260121|  1.7002e+01|  1.8702e+01|  1.8702e+01|
|        4841|  4.9545e-02|   -2.036030|    2.040679|    0.259794|  1.7002e+01|  2.0572e+01|  2.0572e+01|
|        4842|  4.9547e-02|   -2.052982|    2.040898|    0.259430|  1.7002e+01|  2.2630e+01|  2.2629e+01|
|        4843|  4.9548e-02|   -2.055218|    2.041499|    0.259027|  1.7002e+01|  2.4893e+01|  2.4892e+01|
|        4844|  4.9550e-02|   -2.089617|    2.041070|    0.258681|  1.8702e+01|  2.7382e+01|  2.7381e+01|
|        4845|  4.9551e-02|   -2.090786|    2.041388|    0.258532|  2.0572e+01|  3.0120e+01|  3.0119e+01|
|        4846|  4.9552e-02|   -2.068498|    2.041147|    0.258330|  2.2630e+01|  3.3132e+01|  3.3130e+01|
|        4847|  4.9553e-02|   -2.074452|    2.039445|    0.258377|  2.2630e+01|  3.3132e+01|  3.3130e+01|
|        4848|  4.9554e-02|   -2.074523|    2.038966|    0.258205|  2.2630e+01|  3.3132e+01|  3.3130e+01|
|        4849|  4.9556e-02|   -2.057860|    2.038072|    0.257656|  1.1315e+01|  1.6566e+01|  1.6565e+01|
|        4850|  4.9557e-02|   -2.052426|    2.036155|    0.257145|  1.2446e+01|  1.8223e+01|  1.8221e+01|
|        4851|  4.9558e-02|   -2.173061|    2.036073|    0.256861|  1.3691e+01|  2.0045e+01|  2.0043e+01|
|        4852|  4.9559e-02|   -2.230967|    2.035210|    0.256526|  1.5060e+01|  2.2049e+01|  2.2046e+01|
|        4853|  4.9561e-02|   -2.185555|    2.034730|    0.255980|  1.6566e+01|  2.4254e+01|  2.4250e+01|
|        4854|  4.9559e-02|   -2.174700|    2.032040|    0.255168|  1.8223e+01|  2.6680e+01|  2.6674e+01|
|        4855|  4.9559e-02|   -2.179609|    2.030021|    0.254265|  1.8223e+01|  2.9348e+01|  2.9340e+01|
|        4856|  4.9557e-02|   -2.176971|    2.027218|    0.253298|  1.8223e+01|  2.9348e+01|  2.9340e+01|
|        4857|  4.9557e-02|   -2.154818|    2.025698|    0.252435|  2.0045e+01|  3.2282e+01|  3.2273e+01|
|        4858|  4.9556e-02|   -2.133932|    2.024622|    0.251544|  1.0022e+01|  1.6141e+01|  1.6137e+01|
|        4859|  4.9556e-02|   -2.082690|    2.024533|    0.251061|  1.1025e+01|  1.7755e+01|  1.7750e+01|
|        4860|  4.9555e-02|   -2.193017|    2.023634|    0.250527|  1.2127e+01|  1.9531e+01|  1.9525e+01|
|        4861|  4.9554e-02|   -2.214733|    2.023496|    0.250193|  1.3340e+01|  2.1484e+01|  2.1477e+01|
|        4862|  4.9553e-02|   -2.201045|    2.023102|    0.249981|  7.3369e+00|  2.3632e+01|  2.3623e+01|
|        4863|  4.9553e-02|   -2.178108|    2.021933|    0.249887|  8.0706e+00|  2.5996e+01|  2.5985e+01|
|        4864|  4.9552e-02|   -2.158348|    2.020674|    0.249876|  8.0706e+00|  2.8595e+01|  2.8583e+01|
|        4865|  4.9551e-02|   -2.143378|    2.019751|    0.250036|  8.8777e+00|  3.1455e+01|  3.1441e+01|
|        4866|  4.9551e-02|   -2.174452|    2.019072|    0.250263|  8.8777e+00|  3.1455e+01|  3.1441e+01|
|        4867|  4.9550e-02|   -2.179305|    2.018025|    0.250246|  4.4388e+00|  1.5727e+01|  1.5720e+01|
|        4868|  4.9549e-02|   -2.160558|    2.017285|    0.250133|  4.8827e+00|  1.7300e+01|  1.7292e+01|
|        4869|  4.9548e-02|   -2.234454|    2.017218|    0.249994|  5.3710e+00|  1.9030e+01|  1.9021e+01|
|        4870|  4.9550e-02|   -2.260594|    2.017621|    0.249839|  5.9081e+00|  2.0933e+01|  2.0922e+01|
|        4871|  4.9550e-02|   -2.269812|    2.018163|    0.249512|  6.4989e+00|  2.3026e+01|  2.3014e+01|
|        4872|  4.9549e-02|   -2.249594|    2.017572|    0.248859|  7.1488e+00|  2.5329e+01|  2.5315e+01|
|        4873|  4.9548e-02|   -2.210812|    2.016442|    0.247848|  7.8637e+00|  2.7862e+01|  2.7846e+01|
|        4874|  4.9548e-02|   -2.185466|    2.014195|    0.246610|  3.9318e+00|  1.3931e+01|  1.3923e+01|
|        4875|  4.9548e-02|   -2.133082|    2.013882|    0.245867|  4.3250e+00|  1.5324e+01|  1.5315e+01|
|        4876|  4.9550e-02|   -2.169022|    2.015050|    0.245540|  4.7575e+00|  1.6856e+01|  1.6846e+01|
|        4877|  4.9552e-02|   -2.187192|    2.016711|    0.245272|  5.2333e+00|  1.8542e+01|  1.8530e+01|
|        4878|  4.9553e-02|   -2.209100|    2.017163|    0.244913|  5.7566e+00|  2.0396e+01|  2.0383e+01|
|        4879|  4.9555e-02|   -2.206883|    2.017306|    0.244511|  6.3323e+00|  2.2436e+01|  2.2420e+01|
|        4880|  4.9557e-02|   -2.231874|    2.017291|    0.244284|  6.9655e+00|  2.4680e+01|  2.4662e+01|
|        4881|  4.9559e-02|   -2.238273|    2.018706|    0.244340|  7.6620e+00|  2.7148e+01|  2.7127e+01|
|        4882|  4.9560e-02|   -2.258362|    2.020122|    0.244578|  8.4282e+00|  2.9862e+01|  2.9839e+01|
|        4883|  4.9562e-02|   -2.240674|    2.021396|    0.245030|  9.2711e+00|  3.2849e+01|  3.2822e+01|
|        4884|  4.9563e-02|   -2.214461|    2.021784|    0.245662|  9.2711e+00|  3.2849e+01|  3.2822e+01|
|        4885|  4.9564e-02|   -2.177913|    2.023460|    0.246427|  9.2711e+00|  3.2849e+01|  3.2822e+01|
|        4886|  4.9566e-02|   -2.185969|    2.024290|    0.247419|  9.2711e+00|  3.2849e+01|  3.2822e+01|
|        4887|  4.9567e-02|   -2.178685|    2.025263|    0.248485|  9.2711e+00|  3.2849e+01|  3.2822e+01|
|        4888|  4.9569e-02|   -2.186903|    2.025145|    0.249416|  9.2711e+00|  3.2849e+01|  3.2822e+01|
|        4889|  4.9570e-02|   -2.092613|    2.025398|    0.250412|  1.0198e+01|  3.6133e+01|  3.6103e+01|
|        4890|  4.9571e-02|   -2.162402|    2.025386|    0.251360|  5.0991e+00|  1.8067e+01|  1.8052e+01|
|        4891|  4.9572e-02|   -2.059247|    2.025751|    0.252001|  5.6090e+00|  1.9873e+01|  1.9857e+01|
|        4892|  4.9573e-02|   -2.196184|    2.025906|    0.252413|  6.1699e+00|  2.1861e+01|  2.1842e+01|
|        4893|  4.9573e-02|   -2.209484|    2.026793|    0.252816|  6.7869e+00|  2.4047e+01|  2.4026e+01|
|        4894|  4.9573e-02|   -2.245455|    2.027406|    0.253045|  7.4656e+00|  2.6451e+01|  2.6429e+01|
|        4895|  4.9572e-02|   -2.189074|    2.027417|    0.253068|  8.2121e+00|  2.9097e+01|  2.9071e+01|
|        4896|  4.9571e-02|   -2.183692|    2.027434|    0.252938|  9.0333e+00|  3.2006e+01|  3.1978e+01|
|        4897|  4.9570e-02|   -2.085661|    2.028309|    0.252780|  9.9367e+00|  3.5207e+01|  3.5176e+01|
|        4898|  4.9570e-02|   -2.084836|    2.029886|    0.252710|  1.0930e+01|  3.8728e+01|  3.8694e+01|
|        4899|  4.9570e-02|   -1.991461|    2.031585|    0.252734|  1.0930e+01|  3.8728e+01|  3.8694e+01|
|        4900|  4.9569e-02|   -1.955946|    2.032497|    0.252821|  1.0930e+01|  3.8728e+01|  3.8694e+01|
|        4901|  4.9568e-02|   -1.943826|    2.032752|    0.253067|  1.2023e+01|  4.2600e+01|  4.2562e+01|
|        4902|  4.9568e-02|   -1.903728|    2.032018|    0.253306|  1.2023e+01|  4.2600e+01|  4.2562e+01|
|        4903|  4.9567e-02|   -1.930069|    2.030629|    0.253447|  6.0117e+00|  2.1300e+01|  2.1281e+01|
|        4904|  4.9566e-02|   -1.848167|    2.028879|    0.253384|  6.6129e+00|  2.3430e+01|  2.3409e+01|
|        4905|  4.9566e-02|   -1.826106|    2.027473|    0.253167|  7.2741e+00|  2.5773e+01|  2.5750e+01|
|        4906|  4.9565e-02|   -1.726636|    2.025112|    0.252592|  8.0016e+00|  2.8351e+01|  2.8325e+01|
|        4907|  4.9565e-02|   -1.726313|    2.022669|    0.251789|  4.0008e+00|  1.4175e+01|  1.4163e+01|
|        4908|  4.9564e-02|   -1.688326|    2.020702|    0.251047|  2.0004e+00|  7.0876e+00|  7.0813e+00|
|        4909|  4.9563e-02|   -1.796251|    2.020163|    0.250701|  1.0002e+00|  3.5438e+00|  3.5406e+00|
|        4910|  4.9561e-02|   -2.006199|    2.020890|    0.250652|  1.0000e+00|  1.7719e+00|  1.7704e+00|
|        4911|  4.9558e-02|   -2.391949|    2.022135|    0.250721|  1.1000e+00|  1.9491e+00|  1.9474e+00|
|        4912|  4.9555e-02|   -2.554928|    2.023346|    0.250786|  1.2100e+00|  2.1440e+00|  2.1422e+00|
|        4913|  4.9553e-02|   -2.569234|    2.024074|    0.250790|  1.3310e+00|  2.3584e+00|  2.3564e+00|
|        4914|  4.9551e-02|   -2.547068|    2.024508|    0.250758|  1.4641e+00|  2.5942e+00|  2.5920e+00|
|        4915|  4.9550e-02|   -2.543770|    2.024776|    0.250680|  1.6105e+00|  2.8537e+00|  2.8512e+00|
|        4916|  4.9549e-02|   -2.522499|    2.024723|    0.250565|  1.7716e+00|  3.1390e+00|  3.1363e+00|
|        4917|  4.9549e-02|   -2.491913|    2.024138|    0.250377|  1.9487e+00|  3.4529e+00|  3.4500e+00|
|        4918|  4.9549e-02|   -2.485531|    2.023508|    0.250193|  2.1436e+00|  3.7982e+00|  3.7950e+00|
|        4919|  4.9549e-02|   -2.498372|    2.023114|    0.249999|  2.3579e+00|  4.1781e+00|  4.1745e+00|
|        4920|  4.9549e-02|   -2.484071|    2.022590|    0.249777|  2.5937e+00|  4.5959e+00|  4.5919e+00|
|        4921|  4.9549e-02|   -2.439783|    2.021616|    0.249452|  2.8531e+00|  5.0555e+00|  5.0511e+00|
|        4922|  4.9550e-02|   -2.377274|    2.019788|    0.249003|  3.1384e+00|  5.5610e+00|  5.5562e+00|
|        4923|  4.9550e-02|   -2.387893|    2.018732|    0.248580|  3.4523e+00|  6.1171e+00|  6.1118e+00|
|        4924|  4.9551e-02|   -2.422802|    2.018546|    0.248267|  3.7975e+00|  6.7288e+00|  6.7230e+00|
|        4925|  4.9552e-02|   -2.407863|    2.018653|    0.247937|  4.1772e+00|  7.4017e+00|  7.3953e+00|
|        4926|  4.9554e-02|   -2.364986|    2.017617|    0.247455|  4.5950e+00|  8.1419e+00|  8.1349e+00|
|        4927|  4.9555e-02|   -2.345132|    2.016816|    0.246928|  5.0545e+00|  8.9561e+00|  8.9483e+00|
|        4928|  4.9556e-02|   -2.361314|    2.016395|    0.246454|  5.5599e+00|  9.8517e+00|  9.8432e+00|
|        4929|  4.9558e-02|   -2.364492|    2.017152|    0.246066|  6.1159e+00|  1.0837e+01|  1.0828e+01|
|        4930|  4.9559e-02|   -2.351844|    2.017381|    0.245583|  6.7275e+00|  1.1921e+01|  1.1910e+01|
|        4931|  4.9560e-02|   -2.326285|    2.018053|    0.245091|  7.4002e+00|  1.3113e+01|  1.3101e+01|
|        4932|  4.9561e-02|   -2.307909|    2.018309|    0.244588|  8.1403e+00|  1.4424e+01|  1.4411e+01|
|        4933|  4.9563e-02|   -2.290233|    2.019213|    0.244238|  8.9543e+00|  1.5866e+01|  1.5853e+01|
|        4934|  4.9563e-02|   -2.283397|    2.020195|    0.244219|  9.8497e+00|  1.7453e+01|  1.7438e+01|
|        4935|  4.9562e-02|   -2.281528|    2.022113|    0.244599|  1.0835e+01|  1.9198e+01|  1.9182e+01|
|        4936|  4.9561e-02|   -2.256823|    2.024028|    0.245333|  1.1918e+01|  2.1118e+01|  2.1100e+01|
|        4937|  4.9560e-02|   -2.230925|    2.025668|    0.246560|  1.3110e+01|  2.3230e+01|  2.3209e+01|
|        4938|  4.9559e-02|   -2.218145|    2.027614|    0.248329|  1.4421e+01|  2.5553e+01|  2.5530e+01|
|        4939|  4.9559e-02|   -2.197553|    2.029718|    0.250499|  1.5863e+01|  2.8108e+01|  2.8083e+01|
|        4940|  4.9558e-02|   -2.214655|    2.030851|    0.252726|  1.7449e+01|  3.0919e+01|  3.0891e+01|
|        4941|  4.9558e-02|   -2.201896|    2.031078|    0.254765|  8.7247e+00|  1.5459e+01|  1.5445e+01|
|        4942|  4.9557e-02|   -2.159353|    2.030134|    0.255879|  9.5972e+00|  1.7005e+01|  1.6990e+01|
|        4943|  4.9557e-02|   -2.256273|    2.029711|    0.256599|  1.0557e+01|  1.8706e+01|  1.8689e+01|
|        4944|  4.9556e-02|   -2.296579|    2.028678|    0.257011|  1.1613e+01|  2.0576e+01|  2.0558e+01|
|        4945|  4.9555e-02|   -2.294714|    2.027194|    0.257039|  1.2774e+01|  2.2634e+01|  2.2613e+01|
|        4946|  4.9555e-02|   -2.265854|    2.024589|    0.256435|  1.4051e+01|  2.4897e+01|  2.4874e+01|
|        4947|  4.9555e-02|   -2.237779|    2.021352|    0.255329|  1.5456e+01|  2.7387e+01|  2.7362e+01|
|        4948|  4.9554e-02|   -2.202139|    2.017167|    0.253581|  1.7002e+01|  3.0126e+01|  3.0097e+01|
|        4949|  4.9553e-02|   -2.181844|    2.012357|    0.251042|  8.5010e+00|  1.5063e+01|  1.5049e+01|
|        4950|  4.9553e-02|   -2.127576|    2.007875|    0.248928|  4.2505e+00|  7.5315e+00|  7.5243e+00|
|        4951|  4.9552e-02|   -2.160332|    2.005577|    0.247730|  2.1252e+00|  3.7657e+00|  3.7622e+00|
|        4952|  4.9550e-02|   -2.244922|    2.005202|    0.247251|  1.0626e+00|  1.8829e+00|  1.8811e+00|
|        4953|  4.9548e-02|   -2.322403|    2.005747|    0.247088|  1.0000e+00|  1.0000e+00|  1.0000e+00|
|        4954|  4.9545e-02|   -2.375477|    2.006142|    0.247030|  1.1000e+00|  1.1000e+00|  1.1000e+00|
|        4955|  4.9542e-02|   -2.402891|    2.006278|    0.246946|  1.2100e+00|  1.2100e+00|  1.2100e+00|
|        4956|  4.9539e-02|   -2.417002|    2.006414|    0.246845|  1.3310e+00|  1.3310e+00|  1.3310e+00|
|        4957|  4.9538e-02|   -2.419424|    2.006457|    0.246741|  1.4641e+00|  1.4641e+00|  1.4641e+00|
|        4958|  4.9537e-02|   -2.414624|    2.006443|    0.246612|  1.6105e+00|  1.6105e+00|  1.6105e+00|
|        4959|  4.9536e-02|   -2.417318|    2.006365|    0.246496|  1.7716e+00|  1.7716e+00|  1.7716e+00|
|        4960|  4.9535e-02|   -2.419204|    2.006216|    0.246347|  1.9487e+00|  1.9487e+00|  1.9487e+00|
|        4961|  4.9534e-02|   -2.417574|    2.005989|    0.246212|  2.1436e+00|  2.1436e+00|  2.1436e+00|
|        4962|  4.9533e-02|   -2.409037|    2.005686|    0.246048|  2.3579e+00|  2.3579e+00|  2.3579e+00|
|        4963|  4.9532e-02|   -2.396857|    2.005293|    0.245882|  2.5937e+00|  2.5937e+00|  2.5937e+00|
|        4964|  4.9532e-02|   -2.385156|    2.004774|    0.245693|  2.8531e+00|  2.8531e+00|  2.8531e+00|
|        4965|  4.9531e-02|   -2.378741|    2.004221|    0.245505|  3.1384e+00|  3.1384e+00|  3.1384e+00|
|        4966|  4.9531e-02|   -2.368083|    2.003659|    0.245289|  3.4523e+00|  3.4523e+00|  3.4523e+00|
|        4967|  4.9530e-02|   -2.353152|    2.003118|    0.245068|  3.7975e+00|  3.7975e+00|  3.7975e+00|
|        4968|  4.9530e-02|   -2.349726|    2.002508|    0.244826|  4.1772e+00|  4.1772e+00|  4.1772e+00|
|        4969|  4.9530e-02|   -2.342132|    2.002011|    0.244572|  2.0886e+00|  2.0886e+00|  2.0886e+00|
|        4970|  4.9529e-02|   -2.333104|    2.001565|    0.244391|  1.0443e+00|  1.0443e+00|  1.0443e+00|
|        4971|  4.9528e-02|   -2.366118|    2.001506|    0.244322|  1.0000e+00|  1.0000e+00|  1.0000e+00|
|        4972|  4.9526e-02|   -2.396388|    2.001607|    0.244273|  1.0000e+00|  1.0000e+00|  1.0000e+00|
|        4973|  4.9524e-02|   -2.398071|    2.001506|    0.244191|  1.1000e+00|  1.1000e+00|  1.1000e+00|
|        4974|  4.9523e-02|   -2.393274|    2.001459|    0.244105|  1.2100e+00|  1.2100e+00|  1.2100e+00|
|        4975|  4.9522e-02|   -2.386790|    2.001340|    0.244014|  1.3310e+00|  1.3310e+00|  1.3310e+00|
|        4976|  4.9520e-02|   -2.385818|    2.001281|    0.243916|  1.4641e+00|  1.4641e+00|  1.4641e+00|
|        4977|  4.9519e-02|   -2.384110|    2.001102|    0.243800|  1.6105e+00|  1.6105e+00|  1.6105e+00|
|        4978|  4.9518e-02|   -2.377105|    2.000918|    0.243672|  1.7716e+00|  1.7716e+00|  1.7716e+00|
|        4979|  4.9516e-02|   -2.373071|    2.000687|    0.243538|  1.9487e+00|  1.9487e+00|  1.9487e+00|
|        4980|  4.9513e-02|   -2.366967|    2.000417|    0.243392|  1.0000e+00|  1.0000e+00|  1.0000e+00|
|        4981|  4.9509e-02|   -2.357488|    2.000247|    0.243317|  1.0000e+00|  1.0000e+00|  1.0000e+00|
|        4982|  4.9505e-02|   -2.387130|    2.000237|    0.243265|  1.0000e+00|  1.0000e+00|  1.0000e+00|
|        4983|  4.9503e-02|   -2.382675|    2.000075|    0.243183|  1.0000e+00|  1.0000e+00|  1.0000e+00|
|        4984|  4.9500e-02|   -2.373524|    1.999962|    0.243113|  1.0000e+00|  1.0000e+00|  1.0000e+00|
|        4985|  4.9497e-02|   -2.376161|    1.999793|    0.243032|  1.1000e+00|  1.1000e+00|  1.1000e+00|
|        4986|  4.9495e-02|   -2.375988|    1.999688|    0.242956|  1.0000e+00|  1.0000e+00|  1.0000e+00|
|        4987|  4.9492e-02|   -2.373423|    1.999538|    0.242884|  1.1000e+00|  1.1000e+00|  1.1000e+00|
|        4988|  4.9490e-02|   -2.373747|    1.999436|    0.242817|  1.0000e+00|  1.0000e+00|  1.0000e+00|
|        4989|  4.9487e-02|   -2.368738|    1.999296|    0.242751|  1.1000e+00|  1.1000e+00|  1.1000e+00|
|        4990|  4.9484e-02|   -2.372792|    1.999215|    0.242691|  1.2100e+00|  1.2100e+00|  1.2100e+00|
|        4991|  4.9481e-02|   -2.369138|    1.999056|    0.242622|  1.3310e+00|  1.3310e+00|  1.3310e+00|
|        4992|  4.9479e-02|   -2.364563|    1.998937|    0.242559|  1.0000e+00|  1.0000e+00|  1.0000e+00|
|        4993|  4.9476e-02|   -2.360372|    1.998779|    0.242501|  1.0000e+00|  1.0000e+00|  1.0000e+00|
|        4994|  4.9474e-02|   -2.369777|    1.998732|    0.242459|  1.0000e+00|  1.0000e+00|  1.0000e+00|
|        4995|  4.9471e-02|   -2.364829|    1.998604|    0.242411|  1.0000e+00|  1.0000e+00|  1.0000e+00|
|        4996|  4.9468e-02|   -2.361198|    1.998537|    0.242367|  1.0000e+00|  1.0000e+00|  1.0000e+00|
|        4997|  4.9466e-02|   -2.364193|    1.998389|    0.242312|  1.1000e+00|  1.1000e+00|  1.1000e+00|
|        4998|  4.9463e-02|   -2.363929|    1.998333|    0.242262|  1.2100e+00|  1.2100e+00|  1.2100e+00|
|        4999|  4.9460e-02|   -2.359862|    1.998162|    0.242203|  1.3310e+00|  1.3310e+00|  1.3310e+00|

----------------------------- Solver Exit -------------------------------

Maximum number of iterations reached (ITER = 5000) before convergence.
+-----------------------------------------------------------------------+
|      Convergence Field     |     Value    |   Criterion  |  Converged |
+-----------------------------------------------------------------------+
|                  Cauchy[CL]|   0.000382801|       < 1e-06|          No|
+-----------------------------------------------------------------------+
-------------------------------------------------------------------------
+-----------------------------------------------------------------------+
|        File Writing Summary       |              Filename             |
+-----------------------------------------------------------------------+
|SU2 binary restart                 |restart_flow.dat                   |

Writing the forces breakdown file (forces_breakdown.dat).
|Paraview                           |flow.vtu                           |

Writing the forces breakdown file (forces_breakdown.dat).
|Paraview surface                   |surface_flow.vtu                   |

Writing the forces breakdown file (forces_breakdown.dat).
+-----------------------------------------------------------------------+

--------------------------- Finalizing Solver ---------------------------
Deleted CNumerics container.
Deleted CIntegration container.
Deleted CSolver container.
Deleted CIteration container.
Deleted CInterface container.
Deleted CGeometry container.
Deleted CFreeFormDefBox class.
Deleted CSurfaceMovement class.
Deleted CVolumetricMovement class.
Deleted CConfig container.
Deleted nInst container.
Deleted COutput class.
-------------------------------------------------------------------------

------------------------- Exit Success (SU2_CFD) ------------------------

