
-------------------------------------------------------------------------
|    ___ _   _ ___                                                      |
|   / __| | | |_  )   Release 8.0.0 "Harrier"                           |
|   \__ \ |_| |/ /                                                      |
|   |___/\___//___|   Suite (Computational Fluid Dynamics Code)         |
|                                                                       |
-------------------------------------------------------------------------
| SU2 Project Website: https://su2code.github.io                        |
|                                                                       |
| The SU2 Project is maintained by the SU2 Foundation                   |
| (http://su2foundation.org)                                            |
-------------------------------------------------------------------------
| Copyright 2012-2023, SU2 Contributors                                 |
|                                                                       |
| SU2 is free software; you can redistribute it and/or                  |
| modify it under the terms of the GNU Lesser General Public            |
| License as published by the Free Software Foundation; either          |
| version 2.1 of the License, or (at your option) any later version.    |
|                                                                       |
| SU2 is distributed in the hope that it will be useful,                |
| but WITHOUT ANY WARRANTY; without even the implied warranty of        |
| MERCHANTABILITY or FITNESS FOR A PARTICULAR PURPOSE. See the GNU      |
| Lesser General Public License for more details.                       |
|                                                                       |
| You should have received a copy of the GNU Lesser General Public      |
| License along with SU2. If not, see <http://www.gnu.org/licenses/>.   |
-------------------------------------------------------------------------

Parsing config file for zone 0

----------------- Physical Case Definition ( Zone 0 ) -------------------
Compressible RANS equations.
Turbulence model: Spalart-Allmaras-noft2
Hybrid RANS/LES: No Hybrid RANS/LES
Mach number: 0.734.
Angle of attack (AoA): 2.31 deg, and angle of sideslip (AoS): 0 deg.
Reynolds number: 6.5e+06. Reference length 1.
Fixed CL mode, target value: 0.824.
Reading and writing binary SU2 native restart files.
Read flow solution from: solution_flow.dat.
Dimensional simulation.
The reference area is 1 m^2.
The semi-span will be computed using the max y(3D) value.
The reference length is 1 m.
Reference origin for moment evaluation is (0.25, 0, 0).
Surface(s) where the force coefficients are evaluated: AIRFOIL.

Surface(s) plotted in the output file: AIRFOIL.
Surface(s) affected by the design variables: AIRFOIL.
Input mesh file name: mesh_RAE2822_turb_deform.su2

--------------- Space Numerical Integration ( Zone 0 ) ------------------
Jameson-Schmidt-Turkel scheme (2nd order in space) for the flow inviscid terms.
JST viscous coefficients (2nd & 4th): 0.5, 0.02.
The method includes a grid stretching correction (p = 0.3).
Scalar upwind solver for the turbulence model.
First order integration in space.
Average of gradients with correction (viscous flow terms).
Average of gradients with correction (viscous turbulence terms).
Gradient for viscous and source terms: inverse-distance weighted Least-Squares.

--------------- Time Numerical Integration  ( Zone 0 ) ------------------
Local time stepping (steady state simulation).
Euler implicit method for the flow equations.
FGMRES is used for solving the linear system.
Using a ILU(0) preconditioning.
Convergence criteria of the linear solver: 1e-06.
Max number of linear iterations: 10.
No CFL adaptation.
Courant-Friedrichs-Lewy number:       10
Euler implicit time integration for the turbulence model.

------------------ Convergence Criteria  ( Zone 0 ) ---------------------
Maximum number of solver subiterations: 5500.
Begin convergence monitoring at iteration 10.
Residual minimum value: 1e-12.
Cauchy series min. value: 1e-06.
Number of Cauchy elements: 100.
Begin windowed time average at iteration 0.

-------------------- Output Information ( Zone 0 ) ----------------------
File writing frequency: 
+------------------------------------+
|                     File| Frequency|
+------------------------------------+
|                  RESTART|     10000|
|                 PARAVIEW|     10000|
|         SURFACE_PARAVIEW|     10000|
|              SURFACE_CSV|     10000|
+------------------------------------+
Writing the convergence history file every 1 inner iterations.
Writing the screen convergence history every 1 inner iterations.
The tabular file format is CSV (.csv).
Convergence history file name: history_direct.
Forces breakdown file name: forces_breakdown.dat.
Surface file name: surface_flow.
Volume file name: flow.
Restart file name: restart_flow.dat.

------------- Config File Boundary Information ( Zone 0 ) ---------------
+-----------------------------------------------------------------------+
|                        Marker Type|                        Marker Name|
+-----------------------------------------------------------------------+
|                          Far-field|                           FARFIELD|
+-----------------------------------------------------------------------+
|                     Heat flux wall|                            AIRFOIL|
+-----------------------------------------------------------------------+

-------------------- Output Preprocessing ( Zone 0 ) --------------------

WARNING: SURFACE_PRESSURE_DROP can only be computed for at least 2 surfaces (outlet, inlet, ...)

Screen output fields: INNER_ITER, RMS_DENSITY, RMS_NU_TILDE, LIFT, DRAG
History output group(s): ITER, RMS_RES, AERO_COEFF
Convergence field(s): RMS_DENSITY
Warning: No (valid) fields chosen for time convergence monitoring. Time convergence monitoring inactive.
Volume output fields: COORDINATES, SOLUTION, PRIMITIVE

------------------- Geometry Preprocessing ( Zone 0 ) -------------------
Two dimensional problem.
13937 grid points before partitioning.
22842 volume elements before partitioning.
2 surface markers.
192 boundary elements in index 0 (Marker = AIRFOIL).
40 boundary elements in index 1 (Marker = FARFIELD).
Executing the partitioning functions.
Building the graph adjacency structure.
Calling ParMETIS... graph partitioning complete (831 edge cuts).
Distributing ParMETIS coloring.
Rebalancing vertices.
Rebalancing volume element connectivity.
Rebalancing markers and surface elements.
14875 vertices including ghost points. 
23674 interior elements including halo cells. 
18780 triangles.
4894 quadrilaterals.
Establishing MPI communication patterns.
Setting point connectivity.
Renumbering points (Reverse Cuthill McKee Ordering).
Recomputing point connectivity.
Setting element connectivity.
Checking the numerical grid orientation.
All volume elements are correctly orientend.
All surface elements are correctly orientend.
Identifying edges and vertices.
Setting the control volume structure.
Area of the computational grid: 32209.9.
Searching for the closest normal neighbors to the surfaces.
Storing a mapping from global to local point index.
Compute the surface curvature.
Max K: 155.706. Mean K: 7.23668. Standard deviation K: 21.2857.
Checking for periodicity.
Computing mesh quality statistics for the dual control volumes.
+--------------------------------------------------------------+
|           Mesh Quality Metric|        Minimum|        Maximum|
+--------------------------------------------------------------+
|    Orthogonality Angle (deg.)|        75.2881|        89.9994|
|     CV Face Area Aspect Ratio|        1.00154|        3358.27|
|           CV Sub-Volume Ratio|        1.00042|         1211.4|
+--------------------------------------------------------------+
Finding max control volume width.
Communicating number of neighbors.
Wetted area = 2.0239 m.
Area projection in the x-plane = 0.124269 m, y-plane = 0.995873 m.
Max. coordinate in the x-direction = 1 m, y-direction = 0.0629614 m.
Min. coordinate in the x-direction = 0 m, y-direction = -0.0600771 m.
Computing wall distances.

-------------------- Solver Preprocessing ( Zone 0 ) --------------------
WARNING: AoA in the solution file (2.79487 deg.) +
         AoA offset in mesh file (0 deg.) = 2.79487 deg.
WARNING: SU2 will use the dCD/dCL provided in the direct solution file: 0.0683489.
WARNING: SU2 will use the dCMz/dCL provided in the direct solution file: -0.00400945.
Viscous flow: Computing pressure using the ideal gas law
based on the free-stream temperature and a density computed
from the Reynolds number.
Force coefficients computed using free-stream values.

-- Models:
+------------------------------------------------------------------------------+
|          Viscosity Model|        Conductivity Model|              Fluid Model|
+------------------------------------------------------------------------------+
|               SUTHERLAND|          CONSTANT_PRANDTL|             STANDARD_AIR|
+------------------------------------------------------------------------------+
-- Fluid properties:
+------------------------------------------------------------------------------+
|                  Name|    Dim. value|    Ref. value|      Unit|Non-dim. value|
+------------------------------------------------------------------------------+
|        Ref. Viscosity|     1.716e-05|             1|   N.s/m^2|     1.716e-05|
|      Sutherland Temp.|        273.15|             1|         K|        273.15|
|     Sutherland Const.|         110.4|             1|         K|         110.4|
+------------------------------------------------------------------------------+
|        Prandtl (Lam.)|             -|             -|         -|          0.71|
|       Prandtl (Turb.)|             -|             -|         -|           0.9|
+------------------------------------------------------------------------------+
|          Gas Constant|       287.058|             1|  N.m/kg.K|       287.058|
|      Spec. Heat Ratio|             -|             -|         -|           1.4|
+------------------------------------------------------------------------------+
-- Initial and free-stream conditions:
+------------------------------------------------------------------------------+
|                  Name|    Dim. value|    Ref. value|      Unit|Non-dim. value|
+------------------------------------------------------------------------------+
|       Static Pressure|         38515|             1|        Pa|         38515|
|               Density|      0.465631|             1|    kg/m^3|      0.465631|
|           Temperature|        288.15|             1|         K|        288.15|
|          Total Energy|        237984|             1|   m^2/s^2|        237984|
|            Velocity-X|       249.481|             1|       m/s|       249.481|
|            Velocity-Y|       12.1792|             1|       m/s|       12.1792|
|    Velocity Magnitude|       249.778|             1|       m/s|       249.778|
+------------------------------------------------------------------------------+
|             Viscosity|    1.7893e-05|             1|   N.s/m^2|    1.7893e-05|
|          Conductivity|             -|             1|   W/m^2.K|             -|
|     Turb. Kin. Energy|       233.959|             1|   m^2/s^2|       233.959|
|     Spec. Dissipation|        608834|             1|       1/s|        608834|
+------------------------------------------------------------------------------+
|           Mach Number|             -|             -|         -|         0.734|
|       Reynolds Number|             -|             -|         -|       6.5e+06|
+------------------------------------------------------------------------------+
Initialize Jacobian structure (Navier-Stokes). MG level: 0.
Initialize Jacobian structure (SA model).

------------------- Numerics Preprocessing ( Zone 0 ) -------------------

----------------- Integration Preprocessing ( Zone 0 ) ------------------

------------------- Iteration Preprocessing ( Zone 0 ) ------------------
Euler/Navier-Stokes/RANS fluid iteration.

------------------------------ Begin Solver -----------------------------

Simulation Run using the Single-zone Driver
WARNING: SU2 was not compiled for an AVX-capable architecture. Performance could be better,
         see https://su2code.github.io/docs_v7/Build-SU2-Linux-MacOS/#compiler-optimizations
+----------------------------------------------------------------+
|  Inner_Iter|    rms[Rho]|     rms[nu]|          CL|          CD|
+----------------------------------------------------------------+
|           0|   -3.315011|   -4.537007|    0.824035|    0.012563|
|           1|   -3.361295|   -4.630152|    0.823460|    0.012419|
|           2|   -3.406653|   -4.734463|    0.822640|    0.012459|
|           3|   -3.432971|   -4.842797|    0.821845|    0.012598|
|           4|   -3.443105|   -4.950322|    0.821226|    0.012756|
|           5|   -3.443149|   -5.051161|    0.820801|    0.012874|
|           6|   -3.438215|   -5.132416|    0.820515|    0.012930|
|           7|   -3.431892|   -5.184994|    0.820312|    0.012924|
|           8|   -3.425784|   -5.196216|    0.820165|    0.012873|
|           9|   -3.420002|   -5.176128|    0.820081|    0.012797|
|          10|   -3.414002|   -5.148760|    0.820079|    0.012714|
|          11|   -3.407159|   -5.121372|    0.820175|    0.012638|
|          12|   -3.398983|   -5.096952|    0.820371|    0.012579|
|          13|   -3.389124|   -5.074152|    0.820659|    0.012542|
|          14|   -3.377413|   -5.051953|    0.821018|    0.012533|
|          15|   -3.363957|   -5.029623|    0.821429|    0.012554|
|          16|   -3.349205|   -5.006630|    0.821869|    0.012607|
|          17|   -3.333875|   -4.982562|    0.822314|    0.012690|
|          18|   -3.318755|   -4.957528|    0.822744|    0.012802|
|          19|   -3.304497|   -4.931701|    0.823139|    0.012938|
|          20|   -3.291502|   -4.905629|    0.823479|    0.013093|
|          21|   -3.279880|   -4.879832|    0.823747|    0.013259|
|          22|   -3.269538|   -4.854941|    0.823927|    0.013429|
|          23|   -3.260297|   -4.832330|    0.824007|    0.013596|
|          24|   -3.251973|   -4.812299|    0.823978|    0.013750|
|          25|   -3.244457|   -4.795384|    0.823835|    0.013885|
|          26|   -3.237680|   -4.782107|    0.823579|    0.013995|
|          27|   -3.231669|   -4.772678|    0.823215|    0.014076|
|          28|   -3.226449|   -4.767143|    0.822753|    0.014125|
|          29|   -3.222018|   -4.765375|    0.822207|    0.014143|
|          30|   -3.218313|   -4.767168|    0.821595|    0.014129|
|          31|   -3.215225|   -4.772348|    0.820938|    0.014087|
|          32|   -3.212620|   -4.780486|    0.820258|    0.014020|
|          33|   -3.210365|   -4.791219|    0.819577|    0.013935|
|          34|   -3.208346|   -4.804119|    0.818917|    0.013837|
|          35|   -3.206452|   -4.818711|    0.818297|    0.013731|
|          36|   -3.204632|   -4.834111|    0.817732|    0.013623|
|          37|   -3.202826|   -4.849485|    0.817235|    0.013519|
|          38|   -3.201034|   -4.863923|    0.816814|    0.013423|
|          39|   -3.199291|   -4.876359|    0.816472|    0.013338|
|          40|   -3.197660|   -4.885773|    0.816211|    0.013267|
|          41|   -3.196221|   -4.891549|    0.816025|    0.013210|
|          42|   -3.195051|   -4.893425|    0.815907|    0.013169|
|          43|   -3.194225|   -4.891571|    0.815848|    0.013142|
|          44|   -3.193849|   -4.886493|    0.815835|    0.013127|
|          45|   -3.193970|   -4.878958|    0.815856|    0.013122|
|          46|   -3.194597|   -4.869757|    0.815898|    0.013125|
|          47|   -3.195722|   -4.859537|    0.815948|    0.013133|
|          48|   -3.197335|   -4.848751|    0.815996|    0.013142|
|          49|   -3.199418|   -4.837765|    0.816031|    0.013150|
|          50|   -3.201911|   -4.826775|    0.816045|    0.013154|
|          51|   -3.204767|   -4.815939|    0.816033|    0.013154|
|          52|   -3.207927|   -4.805382|    0.815991|    0.013146|
|          53|   -3.211364|   -4.795247|    0.815917|    0.013131|
|          54|   -3.215050|   -4.785745|    0.815813|    0.013108|
|          55|   -3.218954|   -4.777070|    0.815680|    0.013077|
|          56|   -3.223068|   -4.769425|    0.815522|    0.013038|
|          57|   -3.227398|   -4.763041|    0.815343|    0.012994|
|          58|   -3.231939|   -4.758159|    0.815148|    0.012944|
|          59|   -3.236712|   -4.754915|    0.814943|    0.012891|
|          60|   -3.241704|   -4.753130|    0.814733|    0.012836|
|          61|   -3.246893|   -4.752658|    0.814523|    0.012779|
|          62|   -3.252257|   -4.753319|    0.814318|    0.012724|
|          63|   -3.257768|   -4.754921|    0.814120|    0.012669|
|          64|   -3.263357|   -4.757213|    0.813934|    0.012618|
|          65|   -3.268986|   -4.759957|    0.813760|    0.012570|
|          66|   -3.274666|   -4.762972|    0.813600|    0.012526|
|          67|   -3.280384|   -4.765891|    0.813453|    0.012487|
|          68|   -3.286129|   -4.768560|    0.813318|    0.012452|
|          69|   -3.291908|   -4.770883|    0.813195|    0.012421|
|          70|   -3.297726|   -4.772811|    0.813080|    0.012394|
|          71|   -3.303600|   -4.774335|    0.812972|    0.012370|
|          72|   -3.309532|   -4.775481|    0.812867|    0.012350|
|          73|   -3.315498|   -4.776308|    0.812762|    0.012332|
|          74|   -3.321482|   -4.776916|    0.812657|    0.012315|
|          75|   -3.327464|   -4.777392|    0.812547|    0.012301|
|          76|   -3.333392|   -4.777732|    0.812432|    0.012287|
|          77|   -3.339244|   -4.778011|    0.812309|    0.012273|
|          78|   -3.344957|   -4.778278|    0.812179|    0.012260|
|          79|   -3.350462|   -4.778569|    0.812041|    0.012246|
|          80|   -3.355744|   -4.778905|    0.811893|    0.012232|
|          81|   -3.360805|   -4.779307|    0.811737|    0.012218|
|          82|   -3.365654|   -4.779778|    0.811572|    0.012202|
|          83|   -3.370306|   -4.780335|    0.811401|    0.012186|
|          84|   -3.374775|   -4.780974|    0.811224|    0.012169|
|          85|   -3.379067|   -4.781691|    0.811042|    0.012151|
|          86|   -3.383189|   -4.782470|    0.810858|    0.012134|
|          87|   -3.387138|   -4.783229|    0.810674|    0.012115|
|          88|   -3.390901|   -4.783962|    0.810490|    0.012097|
|          89|   -3.394455|   -4.784704|    0.810309|    0.012080|
|          90|   -3.397777|   -4.785476|    0.810132|    0.012062|
|          91|   -3.400833|   -4.786291|    0.809960|    0.012046|
|          92|   -3.403602|   -4.787160|    0.809794|    0.012030|
|          93|   -3.406051|   -4.788088|    0.809635|    0.012017|
|          94|   -3.408187|   -4.789086|    0.809484|    0.012005|
|          95|   -3.410031|   -4.790166|    0.809341|    0.011995|
|          96|   -3.411587|   -4.791341|    0.809206|    0.011987|
|          97|   -3.412863|   -4.792627|    0.809079|    0.011982|
|          98|   -3.413885|   -4.794037|    0.808959|    0.011980|
|          99|   -3.414672|   -4.795581|    0.808845|    0.011981|
|         100|   -3.415245|   -4.797274|    0.808737|    0.011985|
|         101|   -3.415618|   -4.799128|    0.808616|    0.013069|
+-----------------------------------------------------------------------+
|Fixed CL Mode                           |Value                         |
+-----------------------------------------------------------------------+
|Current CL                              |0.808616                      |
|Target CL                               |0.824                         |
|Previous AOA                            |2.79487                       |
|Changed AoA by                          |0.076317                      |
+-----------------------------------------------------------------------+
+----------------------------------------------------------------+
|  Inner_Iter|    rms[Rho]|     rms[nu]|          CL|          CD|
+----------------------------------------------------------------+
|         102|   -1.310726|   -4.788649|    0.808515|    0.013080|
|         103|   -1.695229|   -4.797162|    0.808417|    0.013093|
|         104|   -1.939993|   -4.801374|    0.808319|    0.013110|
|         105|   -2.019788|   -4.804930|    0.808220|    0.013129|
|         106|   -2.074135|   -4.808369|    0.808119|    0.013151|
|         107|   -2.144438|   -4.811821|    0.808013|    0.013176|
|         108|   -2.231341|   -4.815352|    0.807903|    0.013202|
|         109|   -2.322038|   -4.818926|    0.807786|    0.013230|
|         110|   -2.399736|   -4.822507|    0.807663|    0.013259|
|         111|   -2.455879|   -4.826200|    0.807532|    0.013288|
|         112|   -2.492260|   -4.829947|    0.807393|    0.013318|
|         113|   -2.513002|   -4.833767|    0.807246|    0.013347|
|         114|   -2.522147|   -4.837686|    0.807091|    0.013375|
|         115|   -2.525611|   -4.841715|    0.806928|    0.013402|
|         116|   -2.529986|   -4.845847|    0.806757|    0.013428|
|         117|   -2.539656|   -4.850056|    0.806581|    0.013453|
|         118|   -2.555615|   -4.854325|    0.806399|    0.013475|
|         119|   -2.576028|   -4.858617|    0.806212|    0.013496|
|         120|   -2.597710|   -4.862901|    0.806023|    0.013514|
|         121|   -2.617960|   -4.867154|    0.805832|    0.013531|
|         122|   -2.635870|   -4.871343|    0.805640|    0.013546|
|         123|   -2.652269|   -4.875441|    0.805449|    0.013559|
|         124|   -2.668564|   -4.879423|    0.805261|    0.013571|
|         125|   -2.685634|   -4.883300|    0.805077|    0.013582|
|         126|   -2.703443|   -4.887035|    0.804899|    0.013593|
|         127|   -2.721280|   -4.890594|    0.804726|    0.013603|
|         128|   -2.738186|   -4.893953|    0.804560|    0.013613|
|         129|   -2.753293|   -4.897094|    0.804403|    0.013623|
|         130|   -2.766008|   -4.900007|    0.804254|    0.013634|
|         131|   -2.776121|   -4.902695|    0.804114|    0.013646|
|         132|   -2.783887|   -4.905163|    0.803985|    0.013660|
|         133|   -2.790011|   -4.907424|    0.803866|    0.013675|
|         134|   -2.795496|   -4.909493|    0.803759|    0.013692|
|         135|   -2.801400|   -4.911372|    0.803663|    0.013710|
|         136|   -2.808594|   -4.913072|    0.803580|    0.013731|
|         137|   -2.817612|   -4.914613|    0.803508|    0.013753|
|         138|   -2.828592|   -4.916015|    0.803448|    0.013778|
|         139|   -2.841278|   -4.917301|    0.803400|    0.013804|
|         140|   -2.855050|   -4.918502|    0.803365|    0.013833|
|         141|   -2.869025|   -4.919618|    0.803342|    0.013863|
|         142|   -2.882210|   -4.920666|    0.803332|    0.013894|
|         143|   -2.893752|   -4.921661|    0.803336|    0.013927|
|         144|   -2.903189|   -4.922619|    0.803353|    0.013961|
|         145|   -2.910594|   -4.923622|    0.803386|    0.013996|
|         146|   -2.916530|   -4.924633|    0.803436|    0.014032|
|         147|   -2.921857|   -4.925652|    0.803503|    0.014069|
|         148|   -2.927467|   -4.926664|    0.803588|    0.014106|
|         149|   -2.934066|   -4.927662|    0.803693|    0.014144|
|         150|   -2.942060|   -4.928656|    0.803820|    0.014181|
|         151|   -2.951531|   -4.929647|    0.803970|    0.014219|
|         152|   -2.962280|   -4.930644|    0.804145|    0.014257|
|         153|   -2.973909|   -4.931663|    0.804345|    0.014295|
|         154|   -2.985930|   -4.932724|    0.804571|    0.014333|
|         155|   -2.997873|   -4.933833|    0.804826|    0.014371|
|         156|   -3.009377|   -4.935009|    0.805108|    0.014408|
|         157|   -3.020260|   -4.936268|    0.805418|    0.014446|
|         158|   -3.030517|   -4.937631|    0.805757|    0.014483|
|         159|   -3.040288|   -4.939118|    0.806124|    0.014521|
|         160|   -3.049801|   -4.940746|    0.806519|    0.014558|
|         161|   -3.059292|   -4.942539|    0.806939|    0.014595|
|         162|   -3.068961|   -4.944477|    0.807384|    0.014633|
|         163|   -3.078943|   -4.946615|    0.807851|    0.014670|
|         164|   -3.089294|   -4.948974|    0.808340|    0.014707|
|         165|   -3.100000|   -4.951573|    0.808845|    0.014745|
|         166|   -3.111015|   -4.954405|    0.809365|    0.014782|
|         167|   -3.122278|   -4.957488|    0.809896|    0.014819|
|         168|   -3.133731|   -4.960854|    0.810434|    0.014855|
|         169|   -3.145316|   -4.964426|    0.810974|    0.014891|
|         170|   -3.156988|   -4.968186|    0.811512|    0.014927|
|         171|   -3.168714|   -4.972155|    0.812045|    0.014962|
|         172|   -3.180467|   -4.976350|    0.812568|    0.014995|
|         173|   -3.192200|   -4.980792|    0.813075|    0.015028|
|         174|   -3.203865|   -4.985488|    0.813564|    0.015059|
|         175|   -3.215390|   -4.990477|    0.814030|    0.015088|
|         176|   -3.226688|   -4.995739|    0.814468|    0.015116|
|         177|   -3.237674|   -5.001296|    0.814876|    0.015142|
|         178|   -3.248242|   -5.007065|    0.815250|    0.015166|
|         179|   -3.258298|   -5.013017|    0.815587|    0.015188|
|         180|   -3.267757|   -5.019178|    0.815885|    0.015208|
|         181|   -3.276540|   -5.025502|    0.816143|    0.015226|
|         182|   -3.284594|   -5.031886|    0.816358|    0.015241|
|         183|   -3.291886|   -5.038445|    0.816531|    0.015254|
|         184|   -3.298395|   -5.045171|    0.816660|    0.015265|
|         185|   -3.304126|   -5.052048|    0.816747|    0.015273|
|         186|   -3.309088|   -5.059056|    0.816790|    0.015280|
|         187|   -3.313348|   -5.066188|    0.816790|    0.015284|
|         188|   -3.316972|   -5.073414|    0.816750|    0.015285|
|         189|   -3.320048|   -5.080725|    0.816670|    0.015285|
|         190|   -3.322722|   -5.088142|    0.816552|    0.015283|
|         191|   -3.325047|   -5.095660|    0.816398|    0.015280|
|         192|   -3.327129|   -5.103239|    0.816211|    0.015275|
|         193|   -3.329128|   -5.110913|    0.815993|    0.015268|
|         194|   -3.331077|   -5.118734|    0.815746|    0.015260|
|         195|   -3.333068|   -5.126747|    0.815473|    0.015251|
|         196|   -3.335205|   -5.134982|    0.815176|    0.015241|
|         197|   -3.337498|   -5.143438|    0.814859|    0.015230|
|         198|   -3.340027|   -5.152117|    0.814524|    0.015218|
|         199|   -3.342793|   -5.161021|    0.814174|    0.015206|
|         200|   -3.345826|   -5.170145|    0.813812|    0.015193|
|         201|   -3.349112|   -5.179489|    0.813426|    0.015903|
+-----------------------------------------------------------------------+
|Fixed CL Mode                           |Value                         |
+-----------------------------------------------------------------------+
|Current CL                              |0.813426                      |
|Target CL                               |0.824                         |
|Previous AOA                            |2.87118                       |
|Changed AoA by                          |0.0509408                     |
+-----------------------------------------------------------------------+
+----------------------------------------------------------------+
|  Inner_Iter|    rms[Rho]|     rms[nu]|          CL|          CD|
+----------------------------------------------------------------+
|         202|   -1.486207|   -5.156337|    0.813046|    0.015890|
|         203|   -1.869496|   -5.181158|    0.812661|    0.015877|
|         204|   -2.110297|   -5.195397|    0.812274|    0.015863|
|         205|   -2.187640|   -5.207635|    0.811886|    0.015850|
|         206|   -2.240982|   -5.219449|    0.811500|    0.015838|
|         207|   -2.310396|   -5.231049|    0.811119|    0.015826|
|         208|   -2.396310|   -5.242434|    0.810743|    0.015815|
|         209|   -2.486475|   -5.253472|    0.810375|    0.015804|
|         210|   -2.565123|   -5.264133|    0.810015|    0.015794|
|         211|   -2.624076|   -5.274514|    0.809667|    0.015785|
|         212|   -2.664382|   -5.284184|    0.809330|    0.015777|
|         213|   -2.689040|   -5.293098|    0.809008|    0.015770|
|         214|   -2.701197|   -5.301252|    0.808700|    0.015765|
|         215|   -2.706468|   -5.308651|    0.808408|    0.015760|
|         216|   -2.711696|   -5.315356|    0.808133|    0.015757|
|         217|   -2.721700|   -5.321303|    0.807875|    0.015755|
|         218|   -2.737815|   -5.326470|    0.807637|    0.015754|
|         219|   -2.758437|   -5.330920|    0.807418|    0.015755|
|         220|   -2.780544|   -5.334578|    0.807220|    0.015757|
|         221|   -2.801545|   -5.337636|    0.807042|    0.015760|
|         222|   -2.820593|   -5.340142|    0.806886|    0.015764|
|         223|   -2.838519|   -5.342197|    0.806751|    0.015770|
|         224|   -2.856662|   -5.343907|    0.806637|    0.015777|
|         225|   -2.875760|   -5.345415|    0.806546|    0.015785|
|         226|   -2.895569|   -5.346772|    0.806477|    0.015794|
|         227|   -2.915103|   -5.347744|    0.806429|    0.015805|
|         228|   -2.933136|   -5.348465|    0.806404|    0.015817|
|         229|   -2.948615|   -5.349172|    0.806400|    0.015829|
|         230|   -2.960915|   -5.349780|    0.806417|    0.015843|
|         231|   -2.969958|   -5.350294|    0.806456|    0.015858|
|         232|   -2.976245|   -5.350719|    0.806515|    0.015873|
|         233|   -2.980759|   -5.351174|    0.806595|    0.015889|
|         234|   -2.984730|   -5.351863|    0.806694|    0.015906|
|         235|   -2.989327|   -5.352677|    0.806814|    0.015924|
|         236|   -2.995439|   -5.353545|    0.806952|    0.015942|
|         237|   -3.003544|   -5.354315|    0.807108|    0.015961|
|         238|   -3.013671|   -5.354941|    0.807281|    0.015980|
|         239|   -3.025433|   -5.355354|    0.807470|    0.015999|
|         240|   -3.038085|   -5.355558|    0.807673|    0.016018|
|         241|   -3.050639|   -5.355533|    0.807890|    0.016038|
|         242|   -3.062063|   -5.355301|    0.808121|    0.016057|
|         243|   -3.071524|   -5.354910|    0.808363|    0.016077|
|         244|   -3.078642|   -5.354416|    0.808617|    0.016096|
|         245|   -3.083619|   -5.353899|    0.808882|    0.016115|
|         246|   -3.087140|   -5.353402|    0.809156|    0.016133|
|         247|   -3.090133|   -5.352973|    0.809440|    0.016152|
|         248|   -3.093509|   -5.352663|    0.809732|    0.016170|
|         249|   -3.097955|   -5.352497|    0.810033|    0.016187|
|         250|   -3.103827|   -5.352497|    0.810342|    0.016205|
|         251|   -3.111169|   -5.352682|    0.810658|    0.016221|
|         252|   -3.119767|   -5.353095|    0.810982|    0.016237|
|         253|   -3.129252|   -5.353698|    0.811313|    0.016253|
|         254|   -3.139156|   -5.354485|    0.811651|    0.016268|
|         255|   -3.149071|   -5.355511|    0.811996|    0.016282|
|         256|   -3.158711|   -5.356784|    0.812348|    0.016296|
|         257|   -3.167942|   -5.358288|    0.812706|    0.016309|
|         258|   -3.176787|   -5.360006|    0.813070|    0.016322|
|         259|   -3.185409|   -5.361859|    0.813440|    0.016334|
|         260|   -3.194011|   -5.363852|    0.813815|    0.016345|
|         261|   -3.202818|   -5.365976|    0.814196|    0.016356|
|         262|   -3.212008|   -5.368224|    0.814580|    0.016366|
|         263|   -3.221706|   -5.370569|    0.814968|    0.016376|
|         264|   -3.231974|   -5.372985|    0.815358|    0.016385|
|         265|   -3.242807|   -5.375242|    0.815750|    0.016393|
|         266|   -3.254176|   -5.377625|    0.816143|    0.016400|
|         267|   -3.266041|   -5.380298|    0.816534|    0.016407|
|         268|   -3.278346|   -5.383194|    0.816923|    0.016413|
|         269|   -3.291049|   -5.386233|    0.817309|    0.016418|
|         270|   -3.304128|   -5.389272|    0.817688|    0.016423|
|         271|   -3.317578|   -5.392369|    0.818059|    0.016427|
|         272|   -3.331391|   -5.395561|    0.818421|    0.016430|
|         273|   -3.345573|   -5.398880|    0.818771|    0.016432|
|         274|   -3.360049|   -5.402331|    0.819109|    0.016433|
|         275|   -3.374757|   -5.406076|    0.819432|    0.016434|
|         276|   -3.389610|   -5.410286|    0.819739|    0.016433|
|         277|   -3.404503|   -5.414831|    0.820027|    0.016432|
|         278|   -3.419310|   -5.419815|    0.820296|    0.016431|
|         279|   -3.433900|   -5.425099|    0.820543|    0.016428|
|         280|   -3.448131|   -5.430534|    0.820768|    0.016425|
|         281|   -3.461868|   -5.435997|    0.820969|    0.016421|
|         282|   -3.475012|   -5.441450|    0.821146|    0.016417|
|         283|   -3.487376|   -5.446823|    0.821298|    0.016412|
|         284|   -3.498851|   -5.451991|    0.821423|    0.016406|
|         285|   -3.509340|   -5.456928|    0.821523|    0.016400|
|         286|   -3.518773|   -5.461595|    0.821596|    0.016393|
|         287|   -3.527114|   -5.465903|    0.821643|    0.016386|
|         288|   -3.534371|   -5.469774|    0.821664|    0.016378|
|         289|   -3.540584|   -5.473239|    0.821659|    0.016370|
|         290|   -3.545826|   -5.476080|    0.821630|    0.016361|
|         291|   -3.550242|   -5.478365|    0.821576|    0.016352|
|         292|   -3.553881|   -5.480231|    0.821499|    0.016342|
|         293|   -3.556855|   -5.481686|    0.821399|    0.016332|
|         294|   -3.559285|   -5.482805|    0.821278|    0.016321|
|         295|   -3.561337|   -5.483675|    0.821137|    0.016310|
|         296|   -3.563062|   -5.484402|    0.820977|    0.016298|
|         297|   -3.564540|   -5.485111|    0.820799|    0.016285|
|         298|   -3.565871|   -5.485919|    0.820605|    0.016272|
|         299|   -3.567132|   -5.486931|    0.820396|    0.016258|
|         300|   -3.568414|   -5.488238|    0.820175|    0.016244|
|         301|   -3.569749|   -5.489921|    0.819936|    0.016502|
+-----------------------------------------------------------------------+
|Fixed CL Mode                           |Value                         |
+-----------------------------------------------------------------------+
|Current CL                              |0.819936                      |
|Target CL                               |0.824                         |
|Previous AOA                            |2.92212                       |
|Changed AoA by                          |0.0191271                     |
+-----------------------------------------------------------------------+
+----------------------------------------------------------------+
|  Inner_Iter|    rms[Rho]|     rms[nu]|          CL|          CD|
+----------------------------------------------------------------+
|         302|   -1.911562|   -5.472610|    0.819692|    0.016486|
|         303|   -2.293362|   -5.484600|    0.819440|    0.016469|
|         304|   -2.529263|   -5.490460|    0.819180|    0.016451|
|         305|   -2.603541|   -5.495516|    0.818915|    0.016432|
|         306|   -2.655496|   -5.500517|    0.818647|    0.016412|
|         307|   -2.723498|   -5.505603|    0.818376|    0.016392|
|         308|   -2.807568|   -5.510825|    0.818104|    0.016370|
|         309|   -2.895962|   -5.516105|    0.817834|    0.016348|
|         310|   -2.974119|   -5.521405|    0.817566|    0.016325|
|         311|   -3.034625|   -5.526671|    0.817302|    0.016301|
|         312|   -3.078067|   -5.531849|    0.817043|    0.016277|
|         313|   -3.106366|   -5.536807|    0.816791|    0.016252|
|         314|   -3.121608|   -5.541383|    0.816548|    0.016227|
|         315|   -3.128783|   -5.545490|    0.816314|    0.016201|
|         316|   -3.134712|   -5.549006|    0.816091|    0.016174|
|         317|   -3.144509|   -5.551835|    0.815879|    0.016148|
|         318|   -3.159852|   -5.553947|    0.815681|    0.016121|
|         319|   -3.179451|   -5.555281|    0.815497|    0.016095|
|         320|   -3.200591|   -5.555873|    0.815328|    0.016069|
|         321|   -3.220958|   -5.555808|    0.815174|    0.016042|
|         322|   -3.239846|   -5.555234|    0.815036|    0.016017|
|         323|   -3.258035|   -5.554250|    0.814914|    0.015991|
|         324|   -3.276685|   -5.553005|    0.814809|    0.015966|
|         325|   -3.296309|   -5.551657|    0.814720|    0.015942|
|         326|   -3.316437|   -5.550347|    0.814649|    0.015919|
|         327|   -3.335902|   -5.549202|    0.814594|    0.015896|
|         328|   -3.353369|   -5.548328|    0.814555|    0.015874|
|         329|   -3.367795|   -5.547803|    0.814532|    0.015853|
|         330|   -3.378684|   -5.547710|    0.814524|    0.015833|
|         331|   -3.386168|   -5.548090|    0.814532|    0.015814|
|         332|   -3.390947|   -5.549019|    0.814554|    0.015796|
|         333|   -3.394124|   -5.550522|    0.814589|    0.015779|
|         334|   -3.396933|   -5.552599|    0.814637|    0.015762|
|         335|   -3.400469|   -5.555255|    0.814697|    0.015747|
|         336|   -3.405490|   -5.558430|    0.814768|    0.015733|
|         337|   -3.412325|   -5.562061|    0.814848|    0.015719|
|         338|   -3.420875|   -5.566052|    0.814937|    0.015706|
|         339|   -3.430655|   -5.570395|    0.815034|    0.015694|
|         340|   -3.440882|   -5.575039|    0.815138|    0.015683|
|         341|   -3.450602|   -5.579927|    0.815248|    0.015672|
|         342|   -3.458894|   -5.584923|    0.815362|    0.015662|
|         343|   -3.465104|   -5.590008|    0.815481|    0.015652|
|         344|   -3.469034|   -5.595163|    0.815602|    0.015642|
|         345|   -3.470995|   -5.600305|    0.815725|    0.015633|
|         346|   -3.471681|   -5.605412|    0.815851|    0.015624|
|         347|   -3.471943|   -5.610453|    0.815977|    0.015616|
|         348|   -3.472557|   -5.615414|    0.816103|    0.015607|
|         349|   -3.474073|   -5.620330|    0.816230|    0.015599|
|         350|   -3.476756|   -5.625222|    0.816357|    0.015590|
|         351|   -3.480604|   -5.630108|    0.816483|    0.015582|
|         352|   -3.485411|   -5.635014|    0.816609|    0.015573|
|         353|   -3.490853|   -5.639986|    0.816734|    0.015565|
|         354|   -3.496583|   -5.645070|    0.816859|    0.015556|
|         355|   -3.502306|   -5.650299|    0.816984|    0.015547|
|         356|   -3.507834|   -5.655671|    0.817108|    0.015539|
|         357|   -3.513110|   -5.661184|    0.817232|    0.015530|
|         358|   -3.518187|   -5.666820|    0.817356|    0.015521|
|         359|   -3.523201|   -5.672600|    0.817481|    0.015511|
|         360|   -3.528316|   -5.678456|    0.817606|    0.015502|
|         361|   -3.533691|   -5.684502|    0.817731|    0.015493|
|         362|   -3.539449|   -5.690698|    0.817857|    0.015484|
|         363|   -3.545668|   -5.696987|    0.817983|    0.015474|
|         364|   -3.552382|   -5.703210|    0.818110|    0.015465|
|         365|   -3.559589|   -5.709375|    0.818238|    0.015456|
|         366|   -3.567269|   -5.715420|    0.818366|    0.015446|
|         367|   -3.575394|   -5.721334|    0.818494|    0.015437|
|         368|   -3.583937|   -5.727138|    0.818622|    0.015428|
|         369|   -3.592879|   -5.732840|    0.818749|    0.015419|
|         370|   -3.602206|   -5.738465|    0.818876|    0.015410|
|         371|   -3.611903|   -5.744015|    0.819000|    0.015401|
|         372|   -3.621957|   -5.749520|    0.819123|    0.015392|
|         373|   -3.632342|   -5.754992|    0.819243|    0.015384|
|         374|   -3.643024|   -5.760446|    0.819359|    0.015376|
|         375|   -3.653950|   -5.765904|    0.819471|    0.015367|
|         376|   -3.665056|   -5.771432|    0.819579|    0.015359|
|         377|   -3.676254|   -5.777046|    0.819680|    0.015352|
|         378|   -3.687455|   -5.782718|    0.819776|    0.015344|
|         379|   -3.698550|   -5.788415|    0.819864|    0.015337|
|         380|   -3.709421|   -5.794071|    0.819944|    0.015330|
|         381|   -3.719952|   -5.799559|    0.820017|    0.015323|
|         382|   -3.730018|   -5.804750|    0.820080|    0.015316|
|         383|   -3.739501|   -5.809643|    0.820135|    0.015309|
|         384|   -3.748287|   -5.813965|    0.820179|    0.015303|
|         385|   -3.756278|   -5.817627|    0.820214|    0.015297|
|         386|   -3.763389|   -5.820506|    0.820238|    0.015291|
|         387|   -3.769551|   -5.822377|    0.820252|    0.015286|
|         388|   -3.774721|   -5.823425|    0.820255|    0.015280|
|         389|   -3.778896|   -5.823478|    0.820248|    0.015275|
|         390|   -3.782089|   -5.822557|    0.820230|    0.015270|
|         391|   -3.784340|   -5.820730|    0.820202|    0.015265|
|         392|   -3.785710|   -5.818120|    0.820164|    0.015261|
|         393|   -3.786277|   -5.814880|    0.820116|    0.015256|
|         394|   -3.786131|   -5.811189|    0.820059|    0.015252|
|         395|   -3.785364|   -5.807241|    0.819992|    0.015247|
|         396|   -3.784081|   -5.803232|    0.819917|    0.015243|
|         397|   -3.782389|   -5.799358|    0.819834|    0.015239|
|         398|   -3.780392|   -5.795788|    0.819744|    0.015234|
|         399|   -3.778185|   -5.792670|    0.819647|    0.015230|
|         400|   -3.775859|   -5.790140|    0.819543|    0.015226|
|         401|   -3.773497|   -5.788304|    0.819429|    0.015540|
+-----------------------------------------------------------------------+
|Fixed CL Mode                           |Value                         |
+-----------------------------------------------------------------------+
|Current CL                              |0.819429                      |
|Target CL                               |0.824                         |
|Previous AOA                            |2.94125                       |
|Changed AoA by                          |0.0222831                     |
+-----------------------------------------------------------------------+
+----------------------------------------------------------------+
|  Inner_Iter|    rms[Rho]|     rms[nu]|          CL|          CD|
+----------------------------------------------------------------+
|         402|   -1.845368|   -5.701647|    0.819315|    0.015536|
|         403|   -2.228934|   -5.740849|    0.819198|    0.015531|
|         404|   -2.469995|   -5.753993|    0.819077|    0.015527|
|         405|   -2.547074|   -5.762412|    0.818954|    0.015522|
|         406|   -2.600144|   -5.769744|    0.818829|    0.015517|
|         407|   -2.669434|   -5.776720|    0.818704|    0.015512|
|         408|   -2.755391|   -5.783764|    0.818578|    0.015507|
|         409|   -2.845783|   -5.790773|    0.818453|    0.015502|
|         410|   -2.924801|   -5.797732|    0.818330|    0.015497|
|         411|   -2.984135|   -5.804548|    0.818209|    0.015492|
|         412|   -3.024687|   -5.811150|    0.818091|    0.015486|
|         413|   -3.049370|   -5.817536|    0.817977|    0.015481|
|         414|   -3.061331|   -5.823706|    0.817867|    0.015476|
|         415|   -3.066270|   -5.829629|    0.817762|    0.015470|
|         416|   -3.071123|   -5.835196|    0.817663|    0.015465|
|         417|   -3.080747|   -5.840289|    0.817571|    0.015460|
|         418|   -3.096474|   -5.844835|    0.817485|    0.015455|
|         419|   -3.116669|   -5.848997|    0.817406|    0.015450|
|         420|   -3.138264|   -5.852669|    0.817335|    0.015445|
|         421|   -3.158639|   -5.855815|    0.817271|    0.015440|
|         422|   -3.176930|   -5.858420|    0.817216|    0.015436|
|         423|   -3.193955|   -5.860438|    0.817169|    0.015432|
|         424|   -3.211060|   -5.861800|    0.817130|    0.015428|
|         425|   -3.229007|   -5.862476|    0.817100|    0.015425|
|         426|   -3.247609|   -5.862504|    0.817078|    0.015422|
|         427|   -3.265986|   -5.861942|    0.817065|    0.015420|
|         428|   -3.283040|   -5.860853|    0.817060|    0.015417|
|         429|   -3.297837|   -5.859343|    0.817063|    0.015416|
|         430|   -3.309820|   -5.857535|    0.817074|    0.015414|
|         431|   -3.318915|   -5.855553|    0.817094|    0.015413|
|         432|   -3.325551|   -5.853487|    0.817121|    0.015412|
|         433|   -3.330596|   -5.851424|    0.817156|    0.015412|
|         434|   -3.335164|   -5.849396|    0.817198|    0.015412|
|         435|   -3.340346|   -5.847438|    0.817248|    0.015413|
|         436|   -3.346990|   -5.845550|    0.817304|    0.015414|
|         437|   -3.355571|   -5.843735|    0.817367|    0.015415|
|         438|   -3.366149|   -5.841989|    0.817436|    0.015416|
|         439|   -3.378386|   -5.840300|    0.817511|    0.015417|
|         440|   -3.391593|   -5.838652|    0.817592|    0.015419|
|         441|   -3.404832|   -5.837061|    0.817679|    0.015421|
|         442|   -3.417094|   -5.835558|    0.817771|    0.015423|
|         443|   -3.427547|   -5.834141|    0.817867|    0.015425|
|         444|   -3.435783|   -5.832868|    0.817969|    0.015428|
|         445|   -3.441943|   -5.831744|    0.818076|    0.015430|
|         446|   -3.446653|   -5.830803|    0.818187|    0.015432|
|         447|   -3.450804|   -5.830121|    0.818303|    0.015435|
|         448|   -3.455289|   -5.829705|    0.818424|    0.015437|
|         449|   -3.460797|   -5.829577|    0.818549|    0.015439|
|         450|   -3.467709|   -5.829736|    0.818680|    0.015441|
|         451|   -3.476091|   -5.830195|    0.818816|    0.015443|
|         452|   -3.485736|   -5.830967|    0.818957|    0.015445|
|         453|   -3.496260|   -5.832065|    0.819103|    0.015447|
|         454|   -3.507195|   -5.833467|    0.819255|    0.015449|
|         455|   -3.518102|   -5.835152|    0.819413|    0.015451|
|         456|   -3.528650|   -5.837088|    0.819576|    0.015453|
|         457|   -3.538677|   -5.839243|    0.819746|    0.015454|
|         458|   -3.548185|   -5.841567|    0.819921|    0.015455|
|         459|   -3.557308|   -5.843990|    0.820101|    0.015457|
|         460|   -3.566253|   -5.846460|    0.820288|    0.015458|
|         461|   -3.575234|   -5.848914|    0.820479|    0.015458|
|         462|   -3.584430|   -5.851306|    0.820676|    0.015459|
|         463|   -3.593958|   -5.853609|    0.820877|    0.015459|
|         464|   -3.603867|   -5.855851|    0.821082|    0.015460|
|         465|   -3.614152|   -5.857835|    0.821291|    0.015460|
|         466|   -3.624773|   -5.859653|    0.821502|    0.015459|
|         467|   -3.635677|   -5.861342|    0.821716|    0.015458|
|         468|   -3.646813|   -5.862919|    0.821931|    0.015457|
|         469|   -3.658136|   -5.864393|    0.822146|    0.015456|
|         470|   -3.669616|   -5.865784|    0.822360|    0.015454|
|         471|   -3.681235|   -5.867106|    0.822572|    0.015452|
|         472|   -3.692979|   -5.868381|    0.822782|    0.015449|
|         473|   -3.704825|   -5.869669|    0.822988|    0.015446|
|         474|   -3.716732|   -5.870916|    0.823189|    0.015442|
|         475|   -3.728644|   -5.872119|    0.823384|    0.015437|
|         476|   -3.740485|   -5.873263|    0.823572|    0.015432|
|         477|   -3.752163|   -5.874665|    0.823752|    0.015427|
|         478|   -3.763575|   -5.875808|    0.823924|    0.015421|
|         479|   -3.774616|   -5.876721|    0.824086|    0.015414|
|         480|   -3.785182|   -5.877396|    0.824238|    0.015406|
|         481|   -3.795167|   -5.877771|    0.824379|    0.015399|
|         482|   -3.804483|   -5.877789|    0.824509|    0.015390|
|         483|   -3.813063|   -5.877398|    0.824627|    0.015381|
|         484|   -3.820859|   -5.876588|    0.824733|    0.015371|
|         485|   -3.827843|   -5.875320|    0.824828|    0.015361|
|         486|   -3.834007|   -5.873591|    0.824910|    0.015351|
|         487|   -3.839363|   -5.871444|    0.824980|    0.015340|
|         488|   -3.843941|   -5.868947|    0.825038|    0.015329|
|         489|   -3.847788|   -5.866198|    0.825084|    0.015317|
|         490|   -3.850968|   -5.863312|    0.825119|    0.015305|
|         491|   -3.853556|   -5.860431|    0.825144|    0.015293|
|         492|   -3.855627|   -5.857695|    0.825158|    0.015280|
|         493|   -3.857261|   -5.855300|    0.825162|    0.015268|
|         494|   -3.858544|   -5.853273|    0.825157|    0.015255|
|         495|   -3.859560|   -5.851731|    0.825143|    0.015242|
|         496|   -3.860386|   -5.850785|    0.825122|    0.015229|
|         497|   -3.861094|   -5.850559|    0.825093|    0.015216|
|         498|   -3.861747|   -5.851104|    0.825058|    0.015203|
|         499|   -3.862387|   -5.852484|    0.825017|    0.015191|
|         500|   -3.863045|   -5.854741|    0.824971|    0.015178|
|         501|   -3.863759|   -5.857898|    0.824921|    0.015095|
+-----------------------------------------------------------------------+
|Fixed CL Mode                           |Value                         |
+-----------------------------------------------------------------------+
|Current CL                              |0.824921                      |
|Target CL                               |0.824                         |
|Previous AOA                            |2.96353                       |
|Changed AoA by                          |-0.00485323                   |
+-----------------------------------------------------------------------+
+----------------------------------------------------------------+
|  Inner_Iter|    rms[Rho]|     rms[nu]|          CL|          CD|
+----------------------------------------------------------------+
|         502|   -2.506952|   -5.855694|    0.824867|    0.015083|
|         503|   -2.892645|   -5.864002|    0.824810|    0.015071|
|         504|   -3.144552|   -5.870682|    0.824751|    0.015059|
|         505|   -3.229766|   -5.877655|    0.824691|    0.015047|
|         506|   -3.284867|   -5.885151|    0.824629|    0.015036|
|         507|   -3.352950|   -5.893126|    0.824568|    0.015024|
|         508|   -3.433591|   -5.901435|    0.824507|    0.015014|
|         509|   -3.511166|   -5.909920|    0.824448|    0.015003|
|         510|   -3.568195|   -5.918424|    0.824390|    0.014993|
|         511|   -3.600531|   -5.926746|    0.824336|    0.014984|
|         512|   -3.615563|   -5.934672|    0.824284|    0.014975|
|         513|   -3.620735|   -5.942037|    0.824236|    0.014966|
|         514|   -3.620909|   -5.948641|    0.824192|    0.014958|
|         515|   -3.620317|   -5.954338|    0.824153|    0.014951|
|         516|   -3.622625|   -5.958996|    0.824119|    0.014944|
|         517|   -3.629813|   -5.962564|    0.824091|    0.014938|
|         518|   -3.641693|   -5.964977|    0.824069|    0.014932|
|         519|   -3.656360|   -5.966273|    0.824054|    0.014928|
|         520|   -3.671278|   -5.966547|    0.824045|    0.014924|
|         521|   -3.684552|   -5.965941|    0.824043|    0.014921|
|         522|   -3.695681|   -5.964591|    0.824048|    0.014918|
|         523|   -3.705370|   -5.962693|    0.824060|    0.014917|
|         524|   -3.714740|   -5.960500|    0.824079|    0.014916|
|         525|   -3.724636|   -5.958222|    0.824106|    0.014916|
|         526|   -3.735399|   -5.956037|    0.824140|    0.014917|
|         527|   -3.746968|   -5.954096|    0.824181|    0.014918|
|         528|   -3.759064|   -5.952535|    0.824228|    0.014921|
|         529|   -3.771315|   -5.951473|    0.824283|    0.014924|
|         530|   -3.783323|   -5.950980|    0.824343|    0.014928|
|         531|   -3.794734|   -5.951108|    0.824409|    0.014932|
|         532|   -3.805320|   -5.951926|    0.824481|    0.014938|
|         533|   -3.815073|   -5.953366|    0.824558|    0.014944|
|         534|   -3.824215|   -5.955432|    0.824639|    0.014950|
|         535|   -3.833137|   -5.958111|    0.824725|    0.014958|
|         536|   -3.842279|   -5.961357|    0.824813|    0.014965|
|         537|   -3.852011|   -5.965119|    0.824905|    0.014973|
|         538|   -3.862554|   -5.969332|    0.824999|    0.014982|
|         539|   -3.873926|   -5.973908|    0.825094|    0.014991|
|         540|   -3.885946|   -5.978783|    0.825191|    0.015000|
|         541|   -3.898261|   -5.983870|    0.825288|    0.015009|
|         542|   -3.910417|   -5.989056|    0.825385|    0.015018|
|         543|   -3.921971|   -5.994230|    0.825482|    0.015028|
|         544|   -3.932601|   -5.999292|    0.825577|    0.015037|
|         545|   -3.942190|   -6.004149|    0.825670|    0.015047|
|         546|   -3.950839|   -6.008717|    0.825760|    0.015056|
|         547|   -3.958807|   -6.012938|    0.825848|    0.015065|
|         548|   -3.966406|   -6.016774|    0.825933|    0.015074|
|         549|   -3.973923|   -6.020212|    0.826013|    0.015082|
|         550|   -3.981521|   -6.023256|    0.826090|    0.015090|
|         551|   -3.989223|   -6.025937|    0.826162|    0.015097|
|         552|   -3.996912|   -6.028302|    0.826229|    0.015104|
|         553|   -4.004379|   -6.030415|    0.826291|    0.015111|
|         554|   -4.011380|   -6.032347|    0.826348|    0.015117|
|         555|   -4.017710|   -6.034175|    0.826399|    0.015122|
|         556|   -4.023235|   -6.035980|    0.826446|    0.015127|
|         557|   -4.027917|   -6.037832|    0.826487|    0.015131|
|         558|   -4.031820|   -6.039795|    0.826523|    0.015135|
|         559|   -4.035079|   -6.041920|    0.826554|    0.015137|
|         560|   -4.037870|   -6.044204|    0.826580|    0.015140|
|         561|   -4.040353|   -6.046699|    0.826602|    0.015141|
|         562|   -4.042683|   -6.049432|    0.826620|    0.015142|
|         563|   -4.044954|   -6.052401|    0.826635|    0.015142|
|         564|   -4.047246|   -6.055579|    0.826646|    0.015142|
|         565|   -4.049609|   -6.058952|    0.826654|    0.015141|
|         566|   -4.052077|   -6.062401|    0.826660|    0.015140|
|         567|   -4.054686|   -6.065741|    0.826664|    0.015138|
|         568|   -4.057422|   -6.069146|    0.826667|    0.015136|
|         569|   -4.060288|   -6.072599|    0.826669|    0.015133|
|         570|   -4.063292|   -6.076040|    0.826672|    0.015130|
|         571|   -4.066447|   -6.079405|    0.826674|    0.015127|
|         572|   -4.069755|   -6.082635|    0.826678|    0.015124|
|         573|   -4.073210|   -6.085687|    0.826683|    0.015120|
|         574|   -4.076797|   -6.088531|    0.826690|    0.015116|
|         575|   -4.080493|   -6.091151|    0.826700|    0.015112|
|         576|   -4.084269|   -6.093552|    0.826712|    0.015108|
|         577|   -4.088097|   -6.095754|    0.826728|    0.015103|
|         578|   -4.091948|   -6.097792|    0.826747|    0.015099|
|         579|   -4.095801|   -6.099713|    0.826769|    0.015095|
|         580|   -4.099640|   -6.101529|    0.826796|    0.015090|
|         581|   -4.103389|   -6.104086|    0.826826|    0.015086|
|         582|   -4.107027|   -6.106362|    0.826861|    0.015082|
|         583|   -4.110541|   -6.108626|    0.826900|    0.015077|
|         584|   -4.113922|   -6.111122|    0.826942|    0.015073|
|         585|   -4.117157|   -6.113865|    0.826989|    0.015069|
|         586|   -4.120226|   -6.116919|    0.827040|    0.015065|
|         587|   -4.123108|   -6.120319|    0.827094|    0.015061|
|         588|   -4.125786|   -6.124078|    0.827152|    0.015057|
|         589|   -4.128245|   -6.128198|    0.827214|    0.015053|
|         590|   -4.130478|   -6.132668|    0.827278|    0.015049|
|         591|   -4.132486|   -6.137466|    0.827345|    0.015045|
|         592|   -4.134270|   -6.142558|    0.827415|    0.015041|
|         593|   -4.135851|   -6.147898|    0.827486|    0.015037|
|         594|   -4.137217|   -6.153436|    0.827560|    0.015033|
|         595|   -4.138362|   -6.159102|    0.827636|    0.015029|
|         596|   -4.139303|   -6.164825|    0.827713|    0.015024|
|         597|   -4.140065|   -6.170528|    0.827791|    0.015020|
|         598|   -4.140669|   -6.176130|    0.827870|    0.015016|
|         599|   -4.141134|   -6.181554|    0.827949|    0.015011|
|         600|   -4.141468|   -6.186735|    0.828029|    0.015006|
|         601|   -4.141678|   -6.191782|    0.828115|    0.014711|
+-----------------------------------------------------------------------+
|Fixed CL Mode                           |Value                         |
+-----------------------------------------------------------------------+
|Current CL                              |0.828115                      |
|Target CL                               |0.824                         |
|Previous AOA                            |2.95868                       |
|Changed AoA by                          |-0.0201464                    |
+-----------------------------------------------------------------------+
+----------------------------------------------------------------+
|  Inner_Iter|    rms[Rho]|     rms[nu]|          CL|          CD|
+----------------------------------------------------------------+
|         602|   -1.889126|   -5.919486|    0.828195|    0.014706|
|         603|   -2.273369|   -6.021180|    0.828276|    0.014701|
|         604|   -2.517561|   -6.063048|    0.828356|    0.014695|
|         605|   -2.597280|   -6.089425|    0.828436|    0.014690|
|         606|   -2.651789|   -6.109724|    0.828516|    0.014684|
|         607|   -2.722313|   -6.126290|    0.828595|    0.014679|
|         608|   -2.809534|   -6.139590|    0.828674|    0.014673|
|         609|   -2.900709|   -6.149967|    0.828753|    0.014667|
|         610|   -2.979034|   -6.157533|    0.828830|    0.014662|
|         611|   -3.035847|   -6.162445|    0.828908|    0.014656|
|         612|   -3.072829|   -6.164871|    0.828984|    0.014650|
|         613|   -3.094015|   -6.165550|    0.829060|    0.014644|
|         614|   -3.103398|   -6.165331|    0.829135|    0.014638|
|         615|   -3.106948|   -6.164910|    0.829210|    0.014632|
|         616|   -3.111363|   -6.164535|    0.829284|    0.014626|
|         617|   -3.121121|   -6.164232|    0.829357|    0.014620|
|         618|   -3.137259|   -6.163950|    0.829430|    0.014614|
|         619|   -3.157940|   -6.163722|    0.829502|    0.014609|
|         620|   -3.179946|   -6.163617|    0.829573|    0.014603|
|         621|   -3.200533|   -6.163620|    0.829643|    0.014598|
|         622|   -3.218779|   -6.163747|    0.829712|    0.014593|
|         623|   -3.235538|   -6.163793|    0.829780|    0.014588|
|         624|   -3.252261|   -6.163616|    0.829848|    0.014584|
|         625|   -3.269860|   -6.163076|    0.829914|    0.014580|
|         626|   -3.288311|   -6.162064|    0.829979|    0.014576|
|         627|   -3.306877|   -6.160519|    0.830043|    0.014572|
|         628|   -3.324542|   -6.158474|    0.830106|    0.014569|
|         629|   -3.340364|   -6.156020|    0.830166|    0.014566|
|         630|   -3.353674|   -6.153209|    0.830225|    0.014563|
|         631|   -3.364208|   -6.150107|    0.830282|    0.014561|
|         632|   -3.372201|   -6.146726|    0.830337|    0.014559|
|         633|   -3.378379|   -6.143272|    0.830389|    0.014557|
|         634|   -3.383797|   -6.139785|    0.830439|    0.014556|
|         635|   -3.389573|   -6.136271|    0.830486|    0.014555|
|         636|   -3.396627|   -6.132752|    0.830530|    0.014554|
|         637|   -3.405530|   -6.129145|    0.830570|    0.014554|
|         638|   -3.416434|   -6.125432|    0.830607|    0.014554|
|         639|   -3.429082|   -6.121635|    0.830640|    0.014554|
|         640|   -3.442841|   -6.117689|    0.830669|    0.014555|
|         641|   -3.456797|   -6.113525|    0.830694|    0.014556|
|         642|   -3.469931|   -6.109266|    0.830714|    0.014557|
|         643|   -3.481366|   -6.104951|    0.830730|    0.014558|
|         644|   -3.490633|   -6.100541|    0.830741|    0.014559|
|         645|   -3.497819|   -6.096059|    0.830747|    0.014561|
|         646|   -3.503526|   -6.091494|    0.830748|    0.014563|
|         647|   -3.508653|   -6.086845|    0.830743|    0.014564|
|         648|   -3.514124|   -6.082168|    0.830732|    0.014566|
|         649|   -3.520668|   -6.077437|    0.830714|    0.014568|
|         650|   -3.528704|   -6.072687|    0.830691|    0.014569|
|         651|   -3.538320|   -6.067949|    0.830660|    0.014571|
|         652|   -3.549315|   -6.063298|    0.830623|    0.014572|
|         653|   -3.561288|   -6.058736|    0.830579|    0.014574|
|         654|   -3.573742|   -6.054279|    0.830527|    0.014574|
|         655|   -3.586195|   -6.049874|    0.830468|    0.014575|
|         656|   -3.598278|   -6.045622|    0.830402|    0.014576|
|         657|   -3.609799|   -6.041617|    0.830329|    0.014576|
|         658|   -3.620750|   -6.037848|    0.830248|    0.014576|
|         659|   -3.631282|   -6.034418|    0.830161|    0.014575|
|         660|   -3.641630|   -6.031388|    0.830067|    0.014574|
|         661|   -3.652053|   -6.028802|    0.829967|    0.014573|
|         662|   -3.662775|   -6.026683|    0.829862|    0.014571|
|         663|   -3.673951|   -6.025051|    0.829751|    0.014570|
|         664|   -3.685666|   -6.023906|    0.829636|    0.014567|
|         665|   -3.697942|   -6.023286|    0.829517|    0.014565|
|         666|   -3.710761|   -6.023203|    0.829395|    0.014562|
|         667|   -3.724084|   -6.023619|    0.829272|    0.014559|
|         668|   -3.737875|   -6.024524|    0.829147|    0.014556|
|         669|   -3.752108|   -6.025918|    0.829021|    0.014552|
|         670|   -3.766769|   -6.027765|    0.828897|    0.014549|
|         671|   -3.781853|   -6.029983|    0.828775|    0.014545|
|         672|   -3.797358|   -6.032480|    0.828656|    0.014541|
|         673|   -3.813266|   -6.035135|    0.828540|    0.014538|
|         674|   -3.829546|   -6.037820|    0.828430|    0.014534|
|         675|   -3.846142|   -6.040398|    0.828326|    0.014530|
|         676|   -3.862969|   -6.042723|    0.828229|    0.014527|
|         677|   -3.879918|   -6.044659|    0.828139|    0.014523|
|         678|   -3.896857|   -6.046047|    0.828058|    0.014520|
|         679|   -3.913629|   -6.046754|    0.827986|    0.014516|
|         680|   -3.930065|   -6.046683|    0.827924|    0.014513|
|         681|   -3.945988|   -6.045749|    0.827873|    0.014510|
|         682|   -3.961225|   -6.043940|    0.827832|    0.014507|
|         683|   -3.975609|   -6.041274|    0.827802|    0.014505|
|         684|   -3.988992|   -6.037793|    0.827783|    0.014502|
|         685|   -4.001260|   -6.033589|    0.827776|    0.014500|
|         686|   -4.012318|   -6.028815|    0.827780|    0.014497|
|         687|   -4.022118|   -6.023597|    0.827794|    0.014495|
|         688|   -4.030657|   -6.018090|    0.827819|    0.014493|
|         689|   -4.037977|   -6.012468|    0.827855|    0.014491|
|         690|   -4.044159|   -6.006891|    0.827901|    0.014489|
|         691|   -4.049314|   -6.001518|    0.827957|    0.014488|
|         692|   -4.053575|   -5.996497|    0.828021|    0.014486|
|         693|   -4.057088|   -5.991969|    0.828094|    0.014484|
|         694|   -4.059999|   -5.988029|    0.828176|    0.014483|
|         695|   -4.062458|   -5.984769|    0.828264|    0.014481|
|         696|   -4.064587|   -5.982252|    0.828360|    0.014479|
|         697|   -4.066501|   -5.980522|    0.828461|    0.014478|
|         698|   -4.068300|   -5.979604|    0.828569|    0.014476|
|         699|   -4.070066|   -5.979476|    0.828681|    0.014474|
|         700|   -4.071864|   -5.980128|    0.828797|    0.014473|
|         701|   -4.073740|   -5.981550|    0.828924|    0.014124|
+-----------------------------------------------------------------------+
|Fixed CL Mode                           |Value                         |
+-----------------------------------------------------------------------+
|Current CL                              |0.828924                      |
|Target CL                               |0.824                         |
|Previous AOA                            |2.93853                       |
|Changed AoA by                          |-0.0239868                    |
+-----------------------------------------------------------------------+
+----------------------------------------------------------------+
|  Inner_Iter|    rms[Rho]|     rms[nu]|          CL|          CD|
+----------------------------------------------------------------+
|         702|   -1.813354|   -5.794437|    0.829047|    0.014123|
|         703|   -2.197121|   -5.871924|    0.829173|    0.014121|
|         704|   -2.439411|   -5.902179|    0.829301|    0.014120|
|         705|   -2.517731|   -5.921517|    0.829430|    0.014118|
|         706|   -2.571610|   -5.937064|    0.829560|    0.014117|
|         707|   -2.641656|   -5.950412|    0.829691|    0.014116|
|         708|   -2.728463|   -5.961870|    0.829821|    0.014114|
|         709|   -2.819648|   -5.971660|    0.829950|    0.014113|
|         710|   -2.898991|   -5.979755|    0.830078|    0.014112|
|         711|   -2.957951|   -5.986113|    0.830205|    0.014111|
|         712|   -2.997653|   -5.990665|    0.830329|    0.014111|
|         713|   -3.021390|   -5.993691|    0.830450|    0.014110|
|         714|   -3.032621|   -5.995649|    0.830569|    0.014109|
|         715|   -3.037205|   -5.996871|    0.830684|    0.014109|
|         716|   -3.042084|   -5.997467|    0.830795|    0.014109|
|         717|   -3.052053|   -5.997450|    0.830901|    0.014108|
|         718|   -3.068372|   -5.996810|    0.831003|    0.014108|
|         719|   -3.089326|   -5.995623|    0.831100|    0.014108|
|         720|   -3.111756|   -5.994014|    0.831192|    0.014108|
|         721|   -3.132947|   -5.992059|    0.831279|    0.014108|
|         722|   -3.151995|   -5.989873|    0.831360|    0.014108|
|         723|   -3.169754|   -5.987501|    0.831435|    0.014108|
|         724|   -3.187654|   -5.984882|    0.831505|    0.014108|
|         725|   -3.206540|   -5.982062|    0.831568|    0.014109|
|         726|   -3.226271|   -5.978970|    0.831625|    0.014109|
|         727|   -3.245954|   -5.975650|    0.831676|    0.014109|
|         728|   -3.264420|   -5.972182|    0.831721|    0.014110|
|         729|   -3.280620|   -5.968630|    0.831760|    0.014110|
|         730|   -3.293863|   -5.965052|    0.831792|    0.014110|
|         731|   -3.303957|   -5.961532|    0.831818|    0.014111|
|         732|   -3.311279|   -5.958111|    0.831838|    0.014111|
|         733|   -3.316723|   -5.954884|    0.831851|    0.014111|
|         734|   -3.321486|   -5.951785|    0.831859|    0.014112|
|         735|   -3.326775|   -5.948827|    0.831860|    0.014112|
|         736|   -3.333540|   -5.945992|    0.831855|    0.014113|
|         737|   -3.342334|   -5.943205|    0.831844|    0.014113|
|         738|   -3.353258|   -5.940464|    0.831827|    0.014114|
|         739|   -3.365979|   -5.937782|    0.831804|    0.014114|
|         740|   -3.379774|   -5.935067|    0.831776|    0.014115|
|         741|   -3.393633|   -5.932261|    0.831742|    0.014116|
|         742|   -3.406455|   -5.929405|    0.831703|    0.014117|
|         743|   -3.417315|   -5.926503|    0.831658|    0.014118|
|         744|   -3.425750|   -5.923522|    0.831608|    0.014119|
|         745|   -3.431908|   -5.920467|    0.831553|    0.014120|
|         746|   -3.436480|   -5.917379|    0.831492|    0.014121|
|         747|   -3.440453|   -5.914218|    0.831426|    0.014122|
|         748|   -3.444811|   -5.911084|    0.831354|    0.014124|
|         749|   -3.450313|   -5.907907|    0.831277|    0.014125|
|         750|   -3.457381|   -5.904743|    0.831193|    0.014126|
|         751|   -3.466090|   -5.901557|    0.831104|    0.014127|
|         752|   -3.476226|   -5.898364|    0.831009|    0.014129|
|         753|   -3.487372|   -5.895171|    0.830907|    0.014130|
|         754|   -3.499024|   -5.891958|    0.830799|    0.014131|
|         755|   -3.510706|   -5.888745|    0.830684|    0.014132|
|         756|   -3.522061|   -5.885530|    0.830563|    0.014133|
|         757|   -3.532912|   -5.882353|    0.830435|    0.014134|
|         758|   -3.543273|   -5.879214|    0.830301|    0.014134|
|         759|   -3.553305|   -5.876155|    0.830160|    0.014135|
|         760|   -3.563256|   -5.873234|    0.830014|    0.014135|
|         761|   -3.573389|   -5.870439|    0.829862|    0.014136|
|         762|   -3.583927|   -5.867784|    0.829705|    0.014136|
|         763|   -3.595028|   -5.865293|    0.829542|    0.014136|
|         764|   -3.606777|   -5.863012|    0.829376|    0.014135|
|         765|   -3.619198|   -5.860970|    0.829206|    0.014135|
|         766|   -3.632276|   -5.859207|    0.829033|    0.014134|
|         767|   -3.645977|   -5.857738|    0.828859|    0.014134|
|         768|   -3.660272|   -5.856596|    0.828684|    0.014133|
|         769|   -3.675140|   -5.855819|    0.828508|    0.014132|
|         770|   -3.690579|   -5.855430|    0.828334|    0.014131|
|         771|   -3.706592|   -5.855412|    0.828163|    0.014130|
|         772|   -3.723188|   -5.855756|    0.827994|    0.014129|
|         773|   -3.740365|   -5.856402|    0.827831|    0.014128|
|         774|   -3.758102|   -5.857296|    0.827673|    0.014127|
|         775|   -3.776354|   -5.858411|    0.827521|    0.014127|
|         776|   -3.795046|   -5.859674|    0.827378|    0.014126|
|         777|   -3.814072|   -5.860983|    0.827243|    0.014125|
|         778|   -3.833293|   -5.862255|    0.827119|    0.014125|
|         779|   -3.852542|   -5.863404|    0.827005|    0.014124|
|         780|   -3.871624|   -5.864365|    0.826902|    0.014124|
|         781|   -3.890323|   -5.865049|    0.826811|    0.014124|
|         782|   -3.908409|   -5.865354|    0.826733|    0.014124|
|         783|   -3.925643|   -5.865243|    0.826668|    0.014124|
|         784|   -3.941794|   -5.864667|    0.826616|    0.014124|
|         785|   -3.956651|   -5.863614|    0.826577|    0.014125|
|         786|   -3.970035|   -5.862074|    0.826552|    0.014125|
|         787|   -3.981818|   -5.860054|    0.826540|    0.014125|
|         788|   -3.991934|   -5.857602|    0.826541|    0.014126|
|         789|   -4.000382|   -5.854789|    0.826555|    0.014126|
|         790|   -4.007227|   -5.851710|    0.826582|    0.014127|
|         791|   -4.012590|   -5.848468|    0.826620|    0.014128|
|         792|   -4.016639|   -5.845179|    0.826671|    0.014128|
|         793|   -4.019568|   -5.841957|    0.826732|    0.014129|
|         794|   -4.021585|   -5.838915|    0.826803|    0.014129|
|         795|   -4.022896|   -5.836158|    0.826885|    0.014130|
|         796|   -4.023694|   -5.833776|    0.826975|    0.014130|
|         797|   -4.024155|   -5.831845|    0.827073|    0.014131|
|         798|   -4.024428|   -5.830429|    0.827180|    0.014131|
|         799|   -4.024640|   -5.829574|    0.827293|    0.014132|
|         800|   -4.024893|   -5.829304|    0.827412|    0.014132|
|         801|   -4.025268|   -5.829621|    0.827540|    0.013886|
+-----------------------------------------------------------------------+
|Fixed CL Mode                           |Value                         |
+-----------------------------------------------------------------------+
|Current CL                              |0.82754                       |
|Target CL                               |0.824                         |
|Previous AOA                            |2.91455                       |
|Changed AoA by                          |-0.0170589                    |
+-----------------------------------------------------------------------+
+----------------------------------------------------------------+
|  Inner_Iter|    rms[Rho]|     rms[nu]|          CL|          CD|
+----------------------------------------------------------------+
|         802|   -1.961368|   -5.765230|    0.827669|    0.013887|
|         803|   -2.344691|   -5.796865|    0.827802|    0.013887|
|         804|   -2.585308|   -5.808340|    0.827938|    0.013888|
|         805|   -2.662443|   -5.815957|    0.828076|    0.013888|
|         806|   -2.715771|   -5.822396|    0.828216|    0.013889|
|         807|   -2.785337|   -5.828231|    0.828356|    0.013890|
|         808|   -2.871621|   -5.833581|    0.828496|    0.013890|
|         809|   -2.962493|   -5.838471|    0.828636|    0.013891|
|         810|   -3.042229|   -5.842877|    0.828775|    0.013892|
|         811|   -3.102494|   -5.846727|    0.828911|    0.013893|
|         812|   -3.144074|   -5.849957|    0.829045|    0.013894|
|         813|   -3.169711|   -5.852575|    0.829175|    0.013895|
|         814|   -3.182406|   -5.854637|    0.829302|    0.013896|
|         815|   -3.187844|   -5.856183|    0.829424|    0.013897|
|         816|   -3.193088|   -5.857218|    0.829541|    0.013899|
|         817|   -3.203147|   -5.857729|    0.829653|    0.013900|
|         818|   -3.219452|   -5.857728|    0.829758|    0.013901|
|         819|   -3.240408|   -5.857259|    0.829858|    0.013902|
|         820|   -3.262943|   -5.856397|    0.829951|    0.013903|
|         821|   -3.284412|   -5.855226|    0.830036|    0.013904|
|         822|   -3.303946|   -5.853855|    0.830115|    0.013905|
|         823|   -3.322396|   -5.852316|    0.830186|    0.013906|
|         824|   -3.341151|   -5.850660|    0.830250|    0.013907|
|         825|   -3.360979|   -5.848943|    0.830306|    0.013908|
|         826|   -3.381631|   -5.847310|    0.830355|    0.013909|
|         827|   -3.402082|   -5.845714|    0.830396|    0.013910|
|         828|   -3.421042|   -5.844245|    0.830430|    0.013910|
|         829|   -3.437385|   -5.842972|    0.830455|    0.013911|
|         830|   -3.450422|   -5.841921|    0.830474|    0.013911|
|         831|   -3.460039|   -5.841124|    0.830485|    0.013911|
|         832|   -3.466742|   -5.840608|    0.830490|    0.013911|
|         833|   -3.471556|   -5.840424|    0.830487|    0.013911|
|         834|   -3.475776|   -5.840509|    0.830478|    0.013911|
|         835|   -3.480654|   -5.840823|    0.830462|    0.013911|
|         836|   -3.487138|   -5.841403|    0.830440|    0.013912|
|         837|   -3.495743|   -5.842231|    0.830413|    0.013912|
|         838|   -3.506512|   -5.843212|    0.830380|    0.013912|
|         839|   -3.519041|   -5.844359|    0.830342|    0.013912|
|         840|   -3.532532|   -5.845605|    0.830298|    0.013912|
|         841|   -3.545915|   -5.846885|    0.830251|    0.013912|
|         842|   -3.558043|   -5.848179|    0.830199|    0.013913|
|         843|   -3.567991|   -5.849441|    0.830143|    0.013913|
|         844|   -3.575332|   -5.850639|    0.830084|    0.013914|
|         845|   -3.580283|   -5.851753|    0.830021|    0.013915|
|         846|   -3.583602|   -5.852784|    0.829955|    0.013916|
|         847|   -3.586323|   -5.853710|    0.829885|    0.013918|
|         848|   -3.589448|   -5.854504|    0.829812|    0.013919|
|         849|   -3.593729|   -5.855173|    0.829736|    0.013921|
|         850|   -3.599567|   -5.855735|    0.829657|    0.013923|
|         851|   -3.607016|   -5.856181|    0.829575|    0.013925|
|         852|   -3.615846|   -5.856553|    0.829490|    0.013928|
|         853|   -3.625639|   -5.856793|    0.829401|    0.013931|
|         854|   -3.635906|   -5.856881|    0.829309|    0.013933|
|         855|   -3.646196|   -5.856817|    0.829213|    0.013937|
|         856|   -3.656186|   -5.856598|    0.829114|    0.013940|
|         857|   -3.665728|   -5.856232|    0.829012|    0.013943|
|         858|   -3.674854|   -5.855716|    0.828906|    0.013947|
|         859|   -3.683735|   -5.855064|    0.828797|    0.013950|
|         860|   -3.692613|   -5.854297|    0.828684|    0.013954|
|         861|   -3.701738|   -5.853434|    0.828568|    0.013958|
|         862|   -3.711320|   -5.852471|    0.828450|    0.013962|
|         863|   -3.721503|   -5.851419|    0.828328|    0.013966|
|         864|   -3.732365|   -5.850304|    0.828204|    0.013970|
|         865|   -3.743925|   -5.849156|    0.828078|    0.013974|
|         866|   -3.756170|   -5.848029|    0.827951|    0.013978|
|         867|   -3.769071|   -5.846934|    0.827822|    0.013982|
|         868|   -3.782603|   -5.845918|    0.827693|    0.013986|
|         869|   -3.796750|   -5.845040|    0.827563|    0.013990|
|         870|   -3.811513|   -5.844347|    0.827435|    0.013994|
|         871|   -3.826901|   -5.843862|    0.827308|    0.013998|
|         872|   -3.842924|   -5.843569|    0.827182|    0.014002|
|         873|   -3.859584|   -5.843483|    0.827060|    0.014006|
|         874|   -3.876866|   -5.843607|    0.826941|    0.014010|
|         875|   -3.894731|   -5.843952|    0.826827|    0.014014|
|         876|   -3.913113|   -5.844491|    0.826717|    0.014018|
|         877|   -3.931913|   -5.845184|    0.826614|    0.014022|
|         878|   -3.951002|   -5.846000|    0.826516|    0.014026|
|         879|   -3.970220|   -5.846919|    0.826426|    0.014030|
|         880|   -3.989376|   -5.847887|    0.826343|    0.014034|
|         881|   -4.008255|   -5.848868|    0.826268|    0.014038|
|         882|   -4.026616|   -5.849792|    0.826201|    0.014042|
|         883|   -4.044206|   -5.850597|    0.826144|    0.014045|
|         884|   -4.060765|   -5.851228|    0.826095|    0.014049|
|         885|   -4.076045|   -5.851647|    0.826055|    0.014053|
|         886|   -4.089824|   -5.851823|    0.826025|    0.014056|
|         887|   -4.101926|   -5.851739|    0.826004|    0.014059|
|         888|   -4.112234|   -5.851387|    0.825992|    0.014063|
|         889|   -4.120703|   -5.850761|    0.825989|    0.014066|
|         890|   -4.127364|   -5.849872|    0.825995|    0.014069|
|         891|   -4.132315|   -5.848754|    0.826010|    0.014071|
|         892|   -4.135716|   -5.847460|    0.826034|    0.014074|
|         893|   -4.137765|   -5.846050|    0.826065|    0.014077|
|         894|   -4.138685|   -5.844564|    0.826105|    0.014079|
|         895|   -4.138705|   -5.843151|    0.826151|    0.014081|
|         896|   -4.138049|   -5.841804|    0.826205|    0.014083|
|         897|   -4.136921|   -5.840599|    0.826265|    0.014085|
|         898|   -4.135505|   -5.839597|    0.826330|    0.014087|
|         899|   -4.133957|   -5.838850|    0.826402|    0.014089|
|         900|   -4.132409|   -5.838397|    0.826478|    0.014091|
|         901|   -4.130971|   -5.838267|    0.826561|    0.013914|
+-----------------------------------------------------------------------+
|Fixed CL Mode                           |Value                         |
+-----------------------------------------------------------------------+
|Current CL                              |0.826561                      |
|Target CL                               |0.824                         |
|Previous AOA                            |2.89749                       |
[...]
|        5298|   -5.918472|   -8.065932|    0.824235|    0.014282|
|        5299|   -5.923071|   -8.068910|    0.824235|    0.014282|
|        5300|   -5.927489|   -8.071934|    0.824235|    0.014282|
|        5301|   -5.931708|   -8.075019|    0.824235|    0.014282|
|        5302|   -5.935719|   -8.078168|    0.824235|    0.014282|
|        5303|   -5.939513|   -8.081373|    0.824236|    0.014282|
|        5304|   -5.943089|   -8.084619|    0.824236|    0.014281|
|        5305|   -5.946451|   -8.087888|    0.824236|    0.014281|
|        5306|   -5.949604|   -8.091153|    0.824236|    0.014281|
|        5307|   -5.952561|   -8.094389|    0.824236|    0.014281|
|        5308|   -5.955336|   -8.097570|    0.824236|    0.014281|
|        5309|   -5.957947|   -8.100672|    0.824236|    0.014281|
|        5310|   -5.960415|   -8.103675|    0.824237|    0.014281|
|        5311|   -5.962761|   -8.106565|    0.824237|    0.014281|
|        5312|   -5.965008|   -8.109331|    0.824237|    0.014281|
|        5313|   -5.967181|   -8.111971|    0.824237|    0.014281|
|        5314|   -5.969303|   -8.114490|    0.824237|    0.014281|
|        5315|   -5.971397|   -8.116897|    0.824237|    0.014281|
|        5316|   -5.973484|   -8.119208|    0.824238|    0.014281|
|        5317|   -5.975584|   -8.121444|    0.824238|    0.014281|
|        5318|   -5.977715|   -8.123626|    0.824238|    0.014281|
|        5319|   -5.979892|   -8.125780|    0.824238|    0.014281|
|        5320|   -5.982128|   -8.127929|    0.824238|    0.014281|
|        5321|   -5.984432|   -8.130098|    0.824239|    0.014281|
|        5322|   -5.986811|   -8.132306|    0.824239|    0.014281|
|        5323|   -5.989266|   -8.134571|    0.824239|    0.014281|
|        5324|   -5.991800|   -8.136905|    0.824239|    0.014282|
|        5325|   -5.994407|   -8.139315|    0.824240|    0.014282|
|        5326|   -5.997081|   -8.141801|    0.824240|    0.014282|
|        5327|   -5.999813|   -8.144359|    0.824240|    0.014282|
|        5328|   -6.002590|   -8.146978|    0.824240|    0.014282|
|        5329|   -6.005399|   -8.149641|    0.824241|    0.014282|
|        5330|   -6.008223|   -8.152325|    0.824241|    0.014282|
|        5331|   -6.011044|   -8.155005|    0.824241|    0.014282|
|        5332|   -6.013844|   -8.157649|    0.824241|    0.014282|
|        5333|   -6.016604|   -8.160224|    0.824242|    0.014282|
|        5334|   -6.019307|   -8.162697|    0.824242|    0.014282|
|        5335|   -6.021933|   -8.165033|    0.824242|    0.014282|
|        5336|   -6.024469|   -8.167197|    0.824243|    0.014282|
|        5337|   -6.026900|   -8.169158|    0.824243|    0.014283|
|        5338|   -6.029216|   -8.170889|    0.824243|    0.014283|
|        5339|   -6.031409|   -8.172368|    0.824243|    0.014283|
|        5340|   -6.033476|   -8.173576|    0.824244|    0.014283|
|        5341|   -6.035415|   -8.174504|    0.824244|    0.014283|
|        5342|   -6.037232|   -8.175145|    0.824244|    0.014283|
|        5343|   -6.038933|   -8.175504|    0.824244|    0.014283|
|        5344|   -6.040528|   -8.175587|    0.824245|    0.014283|
|        5345|   -6.042033|   -8.175409|    0.824245|    0.014283|
|        5346|   -6.043465|   -8.174991|    0.824245|    0.014283|
|        5347|   -6.044842|   -8.174354|    0.824245|    0.014283|
|        5348|   -6.046186|   -8.173528|    0.824246|    0.014283|
|        5349|   -6.047520|   -8.172540|    0.824246|    0.014283|
|        5350|   -6.048868|   -8.171421|    0.824246|    0.014283|
|        5351|   -6.050252|   -8.170202|    0.824246|    0.014283|
|        5352|   -6.051697|   -8.168913|    0.824246|    0.014283|
|        5353|   -6.053225|   -8.167583|    0.824247|    0.014283|
|        5354|   -6.054856|   -8.166239|    0.824247|    0.014283|
|        5355|   -6.056611|   -8.164904|    0.824247|    0.014284|
|        5356|   -6.058508|   -8.163601|    0.824247|    0.014284|
|        5357|   -6.060561|   -8.162349|    0.824247|    0.014284|
|        5358|   -6.062783|   -8.161162|    0.824248|    0.014284|
|        5359|   -6.065186|   -8.160054|    0.824248|    0.014284|
|        5360|   -6.067776|   -8.159033|    0.824248|    0.014284|
|        5361|   -6.070558|   -8.158106|    0.824248|    0.014284|
|        5362|   -6.073535|   -8.157276|    0.824248|    0.014284|
|        5363|   -6.076703|   -8.156545|    0.824248|    0.014284|
|        5364|   -6.080061|   -8.155912|    0.824249|    0.014284|
|        5365|   -6.083600|   -8.155373|    0.824249|    0.014284|
|        5366|   -6.087312|   -8.154924|    0.824249|    0.014283|
|        5367|   -6.091182|   -8.154558|    0.824249|    0.014283|
|        5368|   -6.095197|   -8.154268|    0.824249|    0.014283|
|        5369|   -6.099339|   -8.154048|    0.824249|    0.014283|
|        5370|   -6.103587|   -8.153887|    0.824249|    0.014283|
|        5371|   -6.107922|   -8.153778|    0.824250|    0.014283|
|        5372|   -6.112319|   -8.153712|    0.824250|    0.014283|
|        5373|   -6.116755|   -8.153680|    0.824250|    0.014283|
|        5374|   -6.121203|   -8.153686|    0.824250|    0.014283|
|        5375|   -6.125640|   -8.153722|    0.824250|    0.014283|
|        5376|   -6.130039|   -8.153769|    0.824250|    0.014283|
|        5377|   -6.134375|   -8.153822|    0.824250|    0.014283|
|        5378|   -6.138625|   -8.153876|    0.824250|    0.014283|
|        5379|   -6.142766|   -8.153928|    0.824251|    0.014283|
|        5380|   -6.146779|   -8.153971|    0.824251|    0.014283|
|        5381|   -6.150644|   -8.154002|    0.824251|    0.014283|
|        5382|   -6.154346|   -8.154017|    0.824251|    0.014283|
|        5383|   -6.157873|   -8.154013|    0.824251|    0.014283|
|        5384|   -6.161216|   -8.153987|    0.824251|    0.014282|
|        5385|   -6.164367|   -8.153936|    0.824252|    0.014282|
|        5386|   -6.167324|   -8.153856|    0.824252|    0.014282|
|        5387|   -6.170085|   -8.153745|    0.824252|    0.014282|
|        5388|   -6.172653|   -8.153600|    0.824252|    0.014282|
|        5389|   -6.175033|   -8.153416|    0.824253|    0.014282|
|        5390|   -6.177231|   -8.153189|    0.824253|    0.014282|
|        5391|   -6.179256|   -8.152915|    0.824253|    0.014282|
|        5392|   -6.181117|   -8.152589|    0.824253|    0.014282|
|        5393|   -6.182826|   -8.152205|    0.824254|    0.014282|
|        5394|   -6.184392|   -8.151759|    0.824254|    0.014282|
|        5395|   -6.185828|   -8.151243|    0.824254|    0.014281|
|        5396|   -6.187146|   -8.150654|    0.824255|    0.014281|
|        5397|   -6.188355|   -8.149986|    0.824255|    0.014281|
|        5398|   -6.189468|   -8.149234|    0.824255|    0.014281|
|        5399|   -6.190493|   -8.148397|    0.824255|    0.014281|
|        5400|   -6.191441|   -8.147470|    0.824256|    0.014281|
|        5401|   -6.192320|   -8.146454|    0.824256|    0.014281|
|        5402|   -6.193137|   -8.145348|    0.824256|    0.014281|
|        5403|   -6.193899|   -8.144154|    0.824257|    0.014281|
|        5404|   -6.194613|   -8.142875|    0.824257|    0.014281|
|        5405|   -6.195284|   -8.141515|    0.824258|    0.014281|
|        5406|   -6.195918|   -8.140082|    0.824258|    0.014280|
|        5407|   -6.196518|   -8.138583|    0.824258|    0.014280|
|        5408|   -6.197090|   -8.137026|    0.824259|    0.014280|
|        5409|   -6.197635|   -8.135422|    0.824259|    0.014280|
|        5410|   -6.198159|   -8.133782|    0.824259|    0.014280|
|        5411|   -6.198665|   -8.132116|    0.824260|    0.014280|
|        5412|   -6.199155|   -8.130438|    0.824260|    0.014280|
|        5413|   -6.199632|   -8.128758|    0.824260|    0.014280|
|        5414|   -6.200100|   -8.127089|    0.824261|    0.014280|
|        5415|   -6.200561|   -8.125443|    0.824261|    0.014280|
|        5416|   -6.201018|   -8.123830|    0.824262|    0.014280|
|        5417|   -6.201475|   -8.122260|    0.824262|    0.014280|
|        5418|   -6.201935|   -8.120743|    0.824262|    0.014280|
|        5419|   -6.202402|   -8.119288|    0.824263|    0.014279|
|        5420|   -6.202878|   -8.117901|    0.824263|    0.014279|
|        5421|   -6.203369|   -8.116587|    0.824263|    0.014279|
|        5422|   -6.203878|   -8.115353|    0.824264|    0.014279|
|        5423|   -6.204411|   -8.114201|    0.824264|    0.014279|
|        5424|   -6.204973|   -8.113134|    0.824264|    0.014279|
|        5425|   -6.205569|   -8.112152|    0.824264|    0.014279|
|        5426|   -6.206207|   -8.111257|    0.824265|    0.014279|
|        5427|   -6.206893|   -8.110445|    0.824265|    0.014279|
|        5428|   -6.207635|   -8.109717|    0.824265|    0.014279|
|        5429|   -6.208441|   -8.109069|    0.824266|    0.014279|
|        5430|   -6.209320|   -8.108499|    0.824266|    0.014279|
|        5431|   -6.210280|   -8.108001|    0.824266|    0.014279|
|        5432|   -6.211331|   -8.107573|    0.824266|    0.014279|
|        5433|   -6.212483|   -8.107209|    0.824267|    0.014279|
|        5434|   -6.213745|   -8.106905|    0.824267|    0.014279|
|        5435|   -6.215127|   -8.106656|    0.824267|    0.014279|
|        5436|   -6.216639|   -8.106457|    0.824267|    0.014279|
|        5437|   -6.218290|   -8.106304|    0.824268|    0.014279|
|        5438|   -6.220088|   -8.106191|    0.824268|    0.014279|
|        5439|   -6.222042|   -8.106114|    0.824268|    0.014279|
|        5440|   -6.224157|   -8.106068|    0.824268|    0.014279|
|        5441|   -6.226441|   -8.106050|    0.824269|    0.014279|
|        5442|   -6.228897|   -8.106056|    0.824269|    0.014279|
|        5443|   -6.231529|   -8.106081|    0.824269|    0.014280|
|        5444|   -6.234338|   -8.106122|    0.824269|    0.014280|
|        5445|   -6.237323|   -8.106177|    0.824269|    0.014280|
|        5446|   -6.240482|   -8.106242|    0.824269|    0.014280|
|        5447|   -6.243810|   -8.106315|    0.824270|    0.014280|
|        5448|   -6.247301|   -8.106392|    0.824270|    0.014280|
|        5449|   -6.250946|   -8.106472|    0.824270|    0.014280|
|        5450|   -6.254734|   -8.106553|    0.824270|    0.014280|
|        5451|   -6.258652|   -8.106633|    0.824270|    0.014280|
|        5452|   -6.262683|   -8.106710|    0.824270|    0.014280|
|        5453|   -6.266810|   -8.106782|    0.824271|    0.014280|
|        5454|   -6.271014|   -8.106849|    0.824271|    0.014280|
|        5455|   -6.275272|   -8.106909|    0.824271|    0.014280|
|        5456|   -6.279562|   -8.106962|    0.824271|    0.014280|
|        5457|   -6.283858|   -8.107007|    0.824271|    0.014281|
|        5458|   -6.288136|   -8.107043|    0.824271|    0.014281|
|        5459|   -6.292370|   -8.107070|    0.824271|    0.014281|
|        5460|   -6.296531|   -8.107088|    0.824271|    0.014281|
|        5461|   -6.300596|   -8.107096|    0.824271|    0.014281|
|        5462|   -6.304537|   -8.107096|    0.824272|    0.014281|
|        5463|   -6.308332|   -8.107088|    0.824272|    0.014281|
|        5464|   -6.311957|   -8.107071|    0.824272|    0.014281|
|        5465|   -6.315391|   -8.107046|    0.824272|    0.014281|
|        5466|   -6.318618|   -8.107014|    0.824272|    0.014281|
|        5467|   -6.321623|   -8.106975|    0.824272|    0.014281|
|        5468|   -6.324393|   -8.106930|    0.824272|    0.014281|
|        5469|   -6.326922|   -8.106880|    0.824272|    0.014281|
|        5470|   -6.329205|   -8.106824|    0.824272|    0.014281|
|        5471|   -6.331241|   -8.106764|    0.824272|    0.014282|
|        5472|   -6.333035|   -8.106700|    0.824272|    0.014282|
|        5473|   -6.334591|   -8.106633|    0.824272|    0.014282|
|        5474|   -6.335922|   -8.106562|    0.824272|    0.014282|
|        5475|   -6.337038|   -8.106488|    0.824272|    0.014282|
|        5476|   -6.337957|   -8.106412|    0.824272|    0.014282|
|        5477|   -6.338694|   -8.106332|    0.824272|    0.014282|
|        5478|   -6.339271|   -8.106249|    0.824272|    0.014282|
|        5479|   -6.339707|   -8.106163|    0.824272|    0.014282|
|        5480|   -6.340024|   -8.106073|    0.824272|    0.014282|
|        5481|   -6.340244|   -8.105979|    0.824272|    0.014282|
|        5482|   -6.340390|   -8.105882|    0.824272|    0.014282|
|        5483|   -6.340482|   -8.105780|    0.824272|    0.014282|
|        5484|   -6.340542|   -8.105673|    0.824272|    0.014282|
|        5485|   -6.340592|   -8.105561|    0.824272|    0.014282|
|        5486|   -6.340649|   -8.105444|    0.824272|    0.014282|
|        5487|   -6.340733|   -8.105321|    0.824272|    0.014282|
|        5488|   -6.340861|   -8.105193|    0.824272|    0.014282|
|        5489|   -6.341047|   -8.105059|    0.824272|    0.014282|
|        5490|   -6.341306|   -8.104918|    0.824272|    0.014282|
|        5491|   -6.341651|   -8.104773|    0.824272|    0.014282|
|        5492|   -6.342091|   -8.104621|    0.824272|    0.014282|
|        5493|   -6.342638|   -8.104465|    0.824272|    0.014282|
|        5494|   -6.343298|   -8.104304|    0.824273|    0.014282|
|        5495|   -6.344078|   -8.104139|    0.824273|    0.014282|
|        5496|   -6.344984|   -8.103971|    0.824273|    0.014282|
|        5497|   -6.346019|   -8.103800|    0.824273|    0.014282|
|        5498|   -6.347186|   -8.103627|    0.824273|    0.014282|
|        5499|   -6.348487|   -8.103453|    0.824273|    0.014267|
+-----------------------------------------------------------------------+
|Fixed CL Mode (Finite Difference)       |Value                         |
+-----------------------------------------------------------------------+
|Delta CL / Delta AoA                    |0.272723                      |
|Delta CD / Delta CL                     |-0.00490688                   |
|Delta CMz / Delta CL                    |-0.031413                     |
+-----------------------------------------------------------------------+
Writing Flow Meta-Data file: flow.meta

----------------------------- Solver Exit -------------------------------

Maximum number of iterations reached (ITER = 5500) before convergence.
+-----------------------------------------------------------------------+
|      Convergence Field     |     Value    |   Criterion  |  Converged |
+-----------------------------------------------------------------------+
|                    rms[Rho]|      -6.34849|         < -12|          No|
+-----------------------------------------------------------------------+
-------------------------------------------------------------------------

--------------------------- Finalizing Solver ---------------------------
Deleted CNumerics container.
Deleted CIntegration container.
Deleted CSolver container.
Deleted CIteration container.
Deleted CInterface container.
Deleted CGeometry container.
Deleted CFreeFormDefBox class.
Deleted CSurfaceMovement class.
Deleted CVolumetricMovement class.
Deleted CConfig container.
Deleted nInst container.
Deleted COutput class.
-------------------------------------------------------------------------

------------------------- Exit Success (SU2_CFD) ------------------------


-------------------------------------------------------------------------
|    ___ _   _ ___                                                      |
|   / __| | | |_  )   Release 8.0.0 "Harrier"                           |
|   \__ \ |_| |/ /                                                      |
|   |___/\___//___|   Suite (Solution Exporting Code)                   |
|                                                                       |
-------------------------------------------------------------------------
| SU2 Project Website: https://su2code.github.io                        |
|                                                                       |
| The SU2 Project is maintained by the SU2 Foundation                   |
| (http://su2foundation.org)                                            |
-------------------------------------------------------------------------
| Copyright 2012-2023, SU2 Contributors                                 |
|                                                                       |
| SU2 is free software; you can redistribute it and/or                  |
| modify it under the terms of the GNU Lesser General Public            |
| License as published by the Free Software Foundation; either          |
| version 2.1 of the License, or (at your option) any later version.    |
|                                                                       |
| SU2 is distributed in the hope that it will be useful,                |
| but WITHOUT ANY WARRANTY; without even the implied warranty of        |
| MERCHANTABILITY or FITNESS FOR A PARTICULAR PURPOSE. See the GNU      |
| Lesser General Public License for more details.                       |
|                                                                       |
| You should have received a copy of the GNU Lesser General Public      |
| License along with SU2. If not, see <http://www.gnu.org/licenses/>.   |
-------------------------------------------------------------------------

----------------- Physical Case Definition ( Zone 0 ) -------------------
Input mesh file name: mesh_RAE2822_turb_deform.su2

-------------------- Output Information ( Zone 0 ) ----------------------
The tabular file format is CSV (.csv).
Flow variables file name: flow.

------------- Config File Boundary Information ( Zone 0 ) ---------------
+-----------------------------------------------------------------------+
|                        Marker Type|                        Marker Name|
+-----------------------------------------------------------------------+
|                          Far-field|                           FARFIELD|
+-----------------------------------------------------------------------+
|                     Heat flux wall|                            AIRFOIL|
+-----------------------------------------------------------------------+
Two dimensional problem.
13937 grid points before partitioning.
22842 volume elements before partitioning.
2 surface markers.
192 boundary elements in index 0 (Marker = AIRFOIL).
40 boundary elements in index 1 (Marker = FARFIELD).
Executing the partitioning functions.
Building the graph adjacency structure.
Calling ParMETIS... graph partitioning complete (831 edge cuts).
Distributing ParMETIS coloring.
Rebalancing vertices.
Rebalancing volume element connectivity.
Rebalancing markers and surface elements.
14875 vertices including ghost points. 
23674 interior elements including halo cells. 
18780 triangles.
4894 quadrilaterals.
Establishing MPI communication patterns.
Identify vertices.
Storing a mapping from global to local point index.

------------------------- Solution Postprocessing -----------------------
Reading and storing the solution from restart_flow.
Volume output fields: COORDINATES, SOLUTION
  Info: Ignoring the following screen output fields:
  RMS_DENSITY, RMS_NU_TILDE, LIFT, DRAG
Screen output fields: INNER_ITER
  Info: Ignoring the following history output groups:
  RMS_RES, AERO_COEFF
History output group(s): ITER
Warning: No (valid) fields chosen for convergence monitoring. Convergence monitoring inactive.
Warning: No (valid) fields chosen for time convergence monitoring. Time convergence monitoring inactive.
|Paraview                           |flow.vtu                           |
|Paraview surface                   |surface_flow.vtu                   |
|CSV file                           |surface_flow.csv                   |

------------------------- Finalize Solver -------------------------
Deleted CGeometry container.
Deleted CSolver class.
Deleted CConfig container.
Deleted COutput class.

Completed in 0.015259 seconds on 6 cores.

------------------------- Exit Success (SU2_SOL) ------------------------

