
-------------------------------------------------------------------------
|    ___ _   _ ___                                                      |
|   / __| | | |_  )   Release 8.0.0 "Harrier"                           |
|   \__ \ |_| |/ /                                                      |
|   |___/\___//___|   Suite (Computational Fluid Dynamics Code)         |
|                                                                       |
-------------------------------------------------------------------------
| SU2 Project Website: https://su2code.github.io                        |
|                                                                       |
| The SU2 Project is maintained by the SU2 Foundation                   |
| (http://su2foundation.org)                                            |
-------------------------------------------------------------------------
| Copyright 2012-2023, SU2 Contributors                                 |
|                                                                       |
| SU2 is free software; you can redistribute it and/or                  |
| modify it under the terms of the GNU Lesser General Public            |
| License as published by the Free Software Foundation; either          |
| version 2.1 of the License, or (at your option) any later version.    |
|                                                                       |
| SU2 is distributed in the hope that it will be useful,                |
| but WITHOUT ANY WARRANTY; without even the implied warranty of        |
| MERCHANTABILITY or FITNESS FOR A PARTICULAR PURPOSE. See the GNU      |
| Lesser General Public License for more details.                       |
|                                                                       |
| You should have received a copy of the GNU Lesser General Public      |
| License along with SU2. If not, see <http://www.gnu.org/licenses/>.   |
-------------------------------------------------------------------------

Parsing config file for zone 0

----------------- Physical Case Definition ( Zone 0 ) -------------------
Compressible RANS equations.
Turbulence model: Menter's k-omega SST-2003m with no production modification.
Hybrid RANS/LES: No Hybrid RANS/LES
Mach number: 0.729.
Angle of attack (AoA): 2 deg, and angle of sideslip (AoS): 0 deg.
Reynolds number: 6.5e+06. Reference length 1.
Reading and writing binary SU2 native restart files.
Read flow solution from: restart_flow.dat.
Dimensional simulation.
The reference area is 1 m^2.
The semi-span will be computed using the max y(3D) value.
The reference length is 1 m.
Surface(s) where the force coefficients are evaluated and 
their reference origin for moment computation: 
   - Airfoil (0.25, 0, 0).
   - Flap (0.25, 0, 0).
   - Slat (0.25, 0, 0) m.
Surface(s) plotted in the output file: Airfoil, Flap, Slat.
Input mesh file name: Mesh.su2

--------------- Space Numerical Integration ( Zone 0 ) ------------------
Roe (with entropy fix = 0.001) solver for the flow inviscid terms.
Standard Roe without low-dissipation function.
Second order integration in space, with slope limiter.
Venkatakrishnan slope-limiting method, with constant: 0.03.
The reference element size is: 1. 
Scalar upwind solver for the turbulence model.
First order integration in space.
Average of gradients with correction (viscous flow terms).
Average of gradients with correction (viscous turbulence terms).
Gradient for upwind reconstruction: inverse-distance weighted Least-Squares.
Gradient for viscous and source terms: inverse-distance weighted Least-Squares.

--------------- Time Numerical Integration  ( Zone 0 ) ------------------
Local time stepping (steady state simulation).
Euler implicit method for the flow equations.
FGMRES is used for solving the linear system.
Using a ILU(0) preconditioning.
Convergence criteria of the linear solver: 1e-06.
Max number of linear iterations: 10.
CFL adaptation. Factor down: 0.5, factor up: 1.1,
                lower limit: 1, upper limit: 1000,
                acceptable linear residual: 0.001.
Courant-Friedrichs-Lewy number:        2
Euler implicit time integration for the turbulence model.

------------------ Convergence Criteria  ( Zone 0 ) ---------------------
Maximum number of solver subiterations: 500.
Begin convergence monitoring at iteration 10.
Residual minimum value: 1e-14.
Cauchy series min. value: 1e-06.
Number of Cauchy elements: 100.
Begin windowed time average at iteration 0.

-------------------- Output Information ( Zone 0 ) ----------------------
File writing frequency: 
+------------------------------------+
|                     File| Frequency|
+------------------------------------+
|                  RESTART|       500|
|                 PARAVIEW|       500|
|         SURFACE_PARAVIEW|       500|
+------------------------------------+
Writing the convergence history file every 1 inner iterations.
Writing the screen convergence history every 1 inner iterations.
The tabular file format is CSV (.csv).
Convergence history file name: historySecond.
Forces breakdown file name: forces_breakdown.dat.
Surface file name: surface_flow.
Volume file name: flow.
Restart file name: restart_flow.dat.

------------- Config File Boundary Information ( Zone 0 ) ---------------
+-----------------------------------------------------------------------+
|                        Marker Type|                        Marker Name|
+-----------------------------------------------------------------------+
|                          Far-field|                           Farfield|
+-----------------------------------------------------------------------+
|                     Heat flux wall|                            Airfoil|
|                                   |                               Flap|
|                                   |                               Slat|
+-----------------------------------------------------------------------+

-------------------- Output Preprocessing ( Zone 0 ) --------------------

WARNING: SURFACE_PRESSURE_DROP can only be computed for at least 2 surfaces (outlet, inlet, ...)

Screen output fields: INNER_ITER, WALL_TIME, RMS_DENSITY, LIFT, DRAG, MIN_CFL, MAX_CFL, AVG_CFL
  Info: Ignoring the following history output groups:
  RESIDUALS, CFL
History output group(s): INNER_ITER, LIFT, DRAG
Convergence field(s): LIFT
Warning: No (valid) fields chosen for time convergence monitoring. Time convergence monitoring inactive.
  Info: Ignoring the following volume output fields/groups:
  RESIDUALS
Volume output fields: SOLUTION, PRIMITIVE, GRADIENTS, HESSIANS, EIGENVALUES, COORDINATES

------------------- Geometry Preprocessing ( Zone 0 ) -------------------
Two dimensional problem.
81376 grid points before partitioning.
82886 volume elements before partitioning.
4 surface markers.
684 boundary elements in index 0 (Marker = Airfoil).
158 boundary elements in index 1 (Marker = Farfield).
263 boundary elements in index 2 (Marker = Flap).
262 boundary elements in index 3 (Marker = Slat).
Executing the partitioning functions.
Building the graph adjacency structure.
Calling ParMETIS... graph partitioning complete (967 edge cuts).
Distributing ParMETIS coloring.
Rebalancing vertices.
Rebalancing volume element connectivity.
Rebalancing markers and surface elements.
83291 vertices including ghost points. 
83855 interior elements including halo cells. 
4416 triangles.
79439 quadrilaterals.
Establishing MPI communication patterns.
Setting point connectivity.
Renumbering points (Reverse Cuthill McKee Ordering).
Recomputing point connectivity.
Setting element connectivity.
Checking the numerical grid orientation.
All volume elements are correctly orientend.
All surface elements are correctly orientend.
Identifying edges and vertices.
Setting the control volume structure.
Area of the computational grid: 31408.
Searching for the closest normal neighbors to the surfaces.
Storing a mapping from global to local point index.
Compute the surface curvature.
Max K: 19753.1. Mean K: 80.2553. Standard deviation K: 944.848.
Checking for periodicity.
Computing mesh quality statistics for the dual control volumes.
+--------------------------------------------------------------+
|           Mesh Quality Metric|        Minimum|        Maximum|
+--------------------------------------------------------------+
|    Orthogonality Angle (deg.)|        55.4995|             90|
|     CV Face Area Aspect Ratio|         1.0021|        2377.04|
|           CV Sub-Volume Ratio|        1.00002|        15.2289|
+--------------------------------------------------------------+
Finding max control volume width.
Communicating number of neighbors.
Wetted area = 2.56896 m.
Area projection in the x-plane = 0.364669 m, y-plane = 1.14805 m.
Max. coordinate in the x-direction = 1.06769 m, y-direction = 0.0602557 m.
Min. coordinate in the x-direction = -0.0559863 m, y-direction = -0.147724 m.
Computing wall distances.

-------------------- Solver Preprocessing ( Zone 0 ) --------------------
Viscous flow: Computing pressure using the ideal gas law
based on the free-stream temperature and a density computed
from the Reynolds number.
Force coefficients computed using free-stream values.

-- Models:
+------------------------------------------------------------------------------+
|          Viscosity Model|        Conductivity Model|              Fluid Model|
+------------------------------------------------------------------------------+
|               SUTHERLAND|          CONSTANT_PRANDTL|             STANDARD_AIR|
+------------------------------------------------------------------------------+
-- Fluid properties:
+------------------------------------------------------------------------------+
|                  Name|    Dim. value|    Ref. value|      Unit|Non-dim. value|
+------------------------------------------------------------------------------+
|        Ref. Viscosity|     1.716e-05|             1|   N.s/m^2|     1.716e-05|
|      Sutherland Temp.|        273.15|             1|         K|        273.15|
|     Sutherland Const.|         110.4|             1|         K|         110.4|
+------------------------------------------------------------------------------+
|        Prandtl (Lam.)|             -|             -|         -|          0.72|
|       Prandtl (Turb.)|             -|             -|         -|           0.9|
+------------------------------------------------------------------------------+
|          Gas Constant|       287.058|             1|  N.m/kg.K|       287.058|
|      Spec. Heat Ratio|             -|             -|         -|           1.4|
+------------------------------------------------------------------------------+
-- Initial and free-stream conditions:
+------------------------------------------------------------------------------+
|                  Name|    Dim. value|    Ref. value|      Unit|Non-dim. value|
+------------------------------------------------------------------------------+
|       Static Pressure|       38779.2|             1|        Pa|       38779.2|
|               Density|      0.468824|             1|    kg/m^3|      0.468824|
|           Temperature|        288.15|             1|         K|        288.15|
|          Total Energy|        237791|             1|   m^2/s^2|        237791|
|            Velocity-X|       247.925|             1|       m/s|       247.925|
|            Velocity-Y|       8.65775|             1|       m/s|       8.65775|
|    Velocity Magnitude|       248.077|             1|       m/s|       248.077|
+------------------------------------------------------------------------------+
|             Viscosity|    1.7893e-05|             1|   N.s/m^2|    1.7893e-05|
|          Conductivity|             -|             1|   W/m^2.K|             -|
|     Turb. Kin. Energy|       230.782|             1|   m^2/s^2|       230.782|
|     Spec. Dissipation|        604687|             1|       1/s|        604687|
+------------------------------------------------------------------------------+
|           Mach Number|             -|             -|         -|         0.729|
|       Reynolds Number|             -|             -|         -|       6.5e+06|
+------------------------------------------------------------------------------+
Initialize Jacobian structure (Navier-Stokes). MG level: 0.
Initialize Jacobian structure (SST model).

------------------- Numerics Preprocessing ( Zone 0 ) -------------------

----------------- Integration Preprocessing ( Zone 0 ) ------------------

------------------- Iteration Preprocessing ( Zone 0 ) ------------------
Euler/Navier-Stokes/RANS fluid iteration.

------------------------------ Begin Solver -----------------------------

Simulation Run using the Single-zone Driver
WARNING: SU2 was not compiled for an AVX-capable architecture. Performance could be better,
         see https://su2code.github.io/docs_v7/Build-SU2-Linux-MacOS/#compiler-optimizations
+-------------------------------------------------------------------------------------------------------+
|  Inner_Iter|   Time(sec)|    rms[Rho]|          CL|          CD|     Min CFL|     Max CFL|     Avg CFL|
+-------------------------------------------------------------------------------------------------------+
|           0|  1.3909e-01|   -3.016846|    1.909235|    0.261302|  2.2000e+00|  2.2000e+00|  2.2000e+00|
|           1|  1.3871e-01|   -3.022401|    1.909237|    0.261296|  2.4200e+00|  2.4200e+00|  2.4200e+00|
|           2|  1.3701e-01|   -3.028124|    1.909240|    0.261290|  2.6620e+00|  2.6620e+00|  2.6620e+00|
|           3|  1.3680e-01|   -3.034257|    1.909245|    0.261286|  2.9282e+00|  2.9282e+00|  2.9282e+00|
|           4|  1.3770e-01|   -3.042202|    1.909251|    0.261282|  3.2210e+00|  3.2210e+00|  3.2210e+00|
|           5|  1.7138e-01|   -3.052671|    1.909259|    0.261281|  3.5431e+00|  3.5431e+00|  3.5431e+00|
|           6|  1.8792e-01|   -3.064307|    1.909268|    0.261281|  3.8974e+00|  3.8974e+00|  3.8974e+00|
|           7|  1.8192e-01|   -3.078681|    1.909279|    0.261282|  4.2872e+00|  4.2872e+00|  4.2872e+00|
|           8|  1.7765e-01|   -3.094906|    1.909292|    0.261286|  4.7159e+00|  4.7159e+00|  4.7159e+00|
|           9|  1.8335e-01|   -3.110684|    1.909304|    0.261290|  5.1875e+00|  5.1875e+00|  5.1875e+00|
|          10|  2.0790e-01|   -3.127561|    1.909315|    0.261293|  5.7062e+00|  5.7062e+00|  5.7062e+00|
|          11|  2.0357e-01|   -3.145639|    1.909324|    0.261295|  6.2769e+00|  6.2769e+00|  6.2769e+00|
|          12|  2.0054e-01|   -3.149173|    1.909328|    0.261294|  6.9045e+00|  6.9045e+00|  6.9045e+00|
|          13|  1.9787e-01|   -3.088535|    1.909326|    0.261289|  7.5950e+00|  7.5950e+00|  7.5950e+00|
|          14|  1.9557e-01|   -3.083365|    1.909318|    0.261278|  8.3545e+00|  8.3545e+00|  8.3545e+00|
|          15|  2.0771e-01|   -3.107739|    1.909304|    0.261263|  9.1899e+00|  9.1899e+00|  9.1899e+00|
|          16|  2.1220e-01|   -3.116365|    1.909283|    0.261243|  1.0109e+01|  1.0109e+01|  1.0109e+01|
|          17|  2.1000e-01|   -3.134353|    1.909256|    0.261221|  1.1120e+01|  1.1120e+01|  1.1120e+01|
|          18|  2.0808e-01|   -3.150790|    1.909220|    0.261199|  1.2232e+01|  1.2232e+01|  1.2232e+01|
|          19|  2.0649e-01|   -3.164671|    1.909176|    0.261179|  1.3455e+01|  1.3455e+01|  1.3455e+01|
|          20|  2.0494e-01|   -3.171183|    1.909124|    0.261160|  1.4800e+01|  1.4800e+01|  1.4800e+01|
|          21|  2.1278e-01|   -3.184796|    1.909064|    0.261136|  1.6281e+01|  1.6281e+01|  1.6281e+01|
|          22|  2.1209e-01|   -3.192982|    1.909003|    0.261100|  1.7909e+01|  1.7909e+01|  1.7909e+01|
|          23|  2.1061e-01|   -3.199746|    1.908948|    0.261046|  1.9699e+01|  1.9699e+01|  1.9699e+01|
|          24|  2.0930e-01|   -3.203661|    1.908908|    0.260975|  2.1669e+01|  2.1669e+01|  2.1669e+01|
|          25|  2.0831e-01|   -3.210585|    1.908887|    0.260895|  2.3836e+01|  2.3836e+01|  2.3836e+01|
|          26|  2.0813e-01|   -3.173076|    1.908885|    0.260817|  2.6220e+01|  2.6220e+01|  2.6220e+01|
|          27|  2.1608e-01|   -3.158715|    1.908894|    0.260747|  2.8842e+01|  2.8842e+01|  2.8842e+01|
|          28|  2.1476e-01|   -3.082939|    1.908901|    0.260683|  3.1726e+01|  3.1726e+01|  3.1726e+01|
|          29|  2.1368e-01|   -3.122183|    1.908897|    0.260615|  3.4899e+01|  3.4899e+01|  3.4899e+01|
|          30|  2.1278e-01|   -3.174406|    1.908883|    0.260530|  3.8389e+01|  3.8389e+01|  3.8389e+01|
|          31|  2.1899e-01|   -3.159973|    1.908861|    0.260417|  4.2228e+01|  4.2228e+01|  4.2228e+01|
|          32|  2.2502e-01|   -3.081515|    1.908823|    0.260267|  4.6450e+01|  4.6450e+01|  4.6450e+01|
|          33|  2.2373e-01|   -3.123423|    1.908750|    0.260078|  5.1095e+01|  5.1095e+01|  5.1095e+01|
|          34|  2.2269e-01|   -3.317637|    1.908616|    0.259865|  2.5548e+01|  2.5548e+01|  2.5548e+01|
|          35|  2.2156e-01|   -3.270450|    1.908528|    0.259764|  2.8102e+01|  2.8102e+01|  2.8102e+01|
|          36|  2.2045e-01|   -3.188703|    1.908421|    0.259656|  3.0913e+01|  3.0913e+01|  3.0913e+01|
|          37|  2.2560e-01|   -3.176370|    1.908290|    0.259550|  3.4004e+01|  3.4004e+01|  3.4004e+01|
|          38|  2.2617e-01|   -3.147878|    1.908138|    0.259458|  3.7404e+01|  3.7404e+01|  3.7404e+01|
|          39|  2.2515e-01|   -3.142774|    1.907981|    0.259394|  4.1145e+01|  4.1145e+01|  4.1145e+01|
|          40|  2.2419e-01|   -3.162621|    1.907836|    0.259371|  4.5259e+01|  4.5259e+01|  4.5259e+01|
|          41|  2.2330e-01|   -3.129107|    1.907727|    0.259404|  4.9785e+01|  4.9785e+01|  4.9785e+01|
|          42|  2.2244e-01|   -3.125123|    1.907666|    0.259493|  5.4764e+01|  5.4764e+01|  5.4764e+01|
|          43|  2.2283e-01|   -3.274944|    1.907667|    0.259637|  2.7382e+01|  2.7382e+01|  2.7382e+01|
|          44|  2.2905e-01|   -3.178147|    1.907680|    0.259719|  3.0120e+01|  3.0120e+01|  3.0120e+01|
|          45|  2.3365e-01|   -3.136236|    1.907714|    0.259816|  3.3132e+01|  3.3132e+01|  3.3132e+01|
|          46|  2.3246e-01|   -3.149143|    1.907774|    0.259925|  3.6445e+01|  3.6445e+01|  3.6445e+01|
|          47|  2.3142e-01|   -3.105822|    1.907862|    0.260046|  4.0090e+01|  4.0090e+01|  4.0090e+01|
|          48|  2.3049e-01|   -3.030012|    1.907990|    0.260174|  4.4099e+01|  4.4099e+01|  4.4099e+01|
|          49|  2.2961e-01|   -3.031732|    1.908159|    0.260305|  4.8509e+01|  4.8509e+01|  4.8509e+01|
|          50|  2.2875e-01|   -2.991323|    1.908372|    0.260429|  5.3359e+01|  5.3359e+01|  5.3359e+01|
|          51|  2.3163e-01|   -2.970053|    1.908624|    0.260541|  5.8695e+01|  5.8695e+01|  5.8695e+01|
|          52|  2.3286e-01|   -2.946212|    1.908903|    0.260629|  6.4565e+01|  6.4565e+01|  6.4565e+01|
|          53|  2.3197e-01|   -2.915669|    1.909191|    0.260690|  7.1021e+01|  7.1021e+01|  7.1021e+01|
|          54|  2.3113e-01|   -2.880337|    1.909461|    0.260722|  7.8124e+01|  7.8124e+01|  7.8124e+01|
|          55|  2.3178e-01|   -2.864917|    1.909682|    0.260727|  7.8124e+01|  7.8124e+01|  7.8124e+01|
|          56|  2.3479e-01|   -2.813859|    1.909826|    0.260716|  8.5936e+01|  8.5936e+01|  8.5936e+01|
|          57|  2.3388e-01|   -2.817385|    1.909902|    0.260692|  8.5936e+01|  8.5936e+01|  8.5936e+01|
|          58|  2.3310e-01|   -2.803866|    1.909920|    0.260658|  9.4530e+01|  9.4530e+01|  9.4530e+01|
|          59|  2.3233e-01|   -2.809813|    1.909916|    0.260612|  9.4530e+01|  9.4530e+01|  9.4530e+01|
|          60|  2.3160e-01|   -2.778994|    1.909915|    0.260552|  1.0398e+02|  1.0398e+02|  1.0398e+02|
|          61|  2.3537e-01|   -2.791987|    1.909959|    0.260475|  1.0398e+02|  1.0398e+02|  1.0398e+02|
|          62|  2.3475e-01|   -2.776979|    1.910057|    0.260389|  1.0398e+02|  1.0398e+02|  1.0398e+02|
|          63|  2.3398e-01|   -2.793746|    1.910188|    0.260302|  1.0398e+02|  1.0398e+02|  1.0398e+02|
|          64|  2.3326e-01|   -2.790371|    1.910333|    0.260224|  1.0398e+02|  1.0398e+02|  1.0398e+02|
|          65|  2.3255e-01|   -2.782285|    1.910473|    0.260161|  1.0398e+02|  1.0398e+02|  1.0398e+02|
|          66|  2.3186e-01|   -2.763538|    1.910574|    0.260116|  1.1438e+02|  1.1438e+02|  1.1438e+02|
|          67|  2.3144e-01|   -2.768854|    1.910631|    0.260088|  1.1438e+02|  1.1438e+02|  1.1438e+02|
|          68|  2.3548e-01|   -2.750736|    1.910633|    0.260078|  1.1438e+02|  1.1438e+02|  1.1438e+02|
|          69|  2.3901e-01|   -2.706310|    1.910589|    0.260080|  1.1438e+02|  1.1438e+02|  1.1438e+02|
|          70|  2.3820e-01|   -2.692950|    1.910512|    0.260087|  1.1438e+02|  1.1438e+02|  1.1438e+02|
|          71|  2.3746e-01|   -2.655319|    1.910421|    0.260098|  1.2582e+02|  1.2582e+02|  1.2582e+02|
|          72|  2.3676e-01|   -2.639118|    1.910303|    0.260106|  1.2582e+02|  1.2582e+02|  1.2582e+02|
|          73|  2.3608e-01|   -2.671125|    1.910174|    0.260107|  1.2582e+02|  1.2582e+02|  1.2582e+02|
|          74|  2.3542e-01|   -2.651275|    1.910035|    0.260108|  1.2582e+02|  1.2582e+02|  1.2582e+02|
|          75|  2.3656e-01|   -2.618039|    1.909876|    0.260105|  1.3840e+02|  1.3840e+02|  1.3840e+02|
|          76|  2.3803e-01|   -2.600714|    1.909684|    0.260109|  1.5224e+02|  1.5224e+02|  1.5224e+02|
|          77|  2.3733e-01|   -2.645934|    1.909463|    0.260114|  7.6120e+01|  7.6120e+01|  7.6120e+01|
|          78|  2.3668e-01|   -2.674486|    1.909343|    0.260121|  8.3732e+01|  8.3732e+01|  8.3732e+01|
|          79|  2.3611e-01|   -2.661776|    1.909206|    0.260131|  9.2106e+01|  9.2106e+01|  9.2106e+01|
|          80|  2.3880e-01|   -2.648584|    1.909049|    0.260144|  1.0132e+02|  1.0132e+02|  1.0132e+02|
|          81|  2.3846e-01|   -2.633021|    1.908867|    0.260152|  1.1145e+02|  1.1145e+02|  1.1145e+02|
|          82|  2.3782e-01|   -2.610842|    1.908664|    0.260157|  1.2259e+02|  1.2259e+02|  1.2259e+02|
|          83|  2.3721e-01|   -2.613854|    1.908443|    0.260158|  1.3485e+02|  1.3485e+02|  1.3485e+02|
|          84|  2.3662e-01|   -2.606387|    1.908194|    0.260152|  1.4834e+02|  1.4834e+02|  1.4834e+02|
|          85|  2.3633e-01|   -2.584727|    1.907928|    0.260142|  1.4834e+02|  1.4834e+02|  1.4834e+02|
|          86|  2.3859e-01|   -2.549436|    1.907660|    0.260131|  1.4834e+02|  1.4834e+02|  1.4834e+02|
|          87|  2.3796e-01|   -2.569460|    1.907383|    0.260118|  7.4169e+01|  7.4169e+01|  7.4169e+01|
|          88|  2.3738e-01|   -2.547587|    1.907232|    0.260117|  8.1585e+01|  8.1585e+01|  8.1585e+01|
|          89|  2.3682e-01|   -2.584922|    1.907066|    0.260114|  8.9744e+01|  8.9744e+01|  8.9744e+01|
|          90|  2.3627e-01|   -2.700241|    1.906878|    0.260109|  9.8718e+01|  9.8718e+01|  9.8718e+01|
|          91|  2.3573e-01|   -2.676935|    1.906669|    0.260099|  1.0859e+02|  1.0859e+02|  1.0859e+02|
|          92|  2.3597e-01|   -2.668084|    1.906438|    0.260082|  1.1945e+02|  1.1945e+02|  1.1945e+02|
|          93|  2.3761e-01|   -2.646109|    1.906184|    0.260056|  1.1945e+02|  1.1945e+02|  1.1945e+02|
|          94|  2.3704e-01|   -2.634586|    1.905928|    0.260026|  1.1945e+02|  1.1945e+02|  1.1945e+02|
|          95|  2.3651e-01|   -2.617820|    1.905675|    0.259994|  1.1945e+02|  1.1945e+02|  1.1945e+02|
|          96|  2.3601e-01|   -2.673106|    1.905424|    0.259961|  1.1945e+02|  1.1945e+02|  1.1945e+02|
|          97|  2.3551e-01|   -2.698330|    1.905184|    0.259928|  5.9725e+01|  5.9725e+01|  5.9725e+01|
|          98|  2.3704e-01|   -2.717460|    1.905068|    0.259915|  6.5697e+01|  6.5697e+01|  6.5697e+01|
|          99|  2.3733e-01|   -2.713201|    1.904938|    0.259897|  7.2267e+01|  7.2267e+01|  7.2267e+01|
|         100|  2.3682e-01|   -2.715696|    1.904803|    0.259882|  7.9493e+01|  7.9493e+01|  7.9493e+01|
|         101|  2.3633e-01|   -2.718440|    1.904664|    0.259866|  8.7443e+01|  8.7443e+01|  8.7443e+01|
|         102|  2.3586e-01|   -2.700967|    1.904515|    0.259849|  9.6187e+01|  9.6187e+01|  9.6187e+01|
|         103|  2.3538e-01|   -2.764381|    1.904352|    0.259831|  1.0581e+02|  1.0581e+02|  1.0581e+02|
|         104|  2.3493e-01|   -2.724398|    1.904175|    0.259809|  1.0581e+02|  1.0581e+02|  1.0581e+02|
|         105|  2.3648e-01|   -2.703075|    1.903993|    0.259787|  5.2903e+01|  5.2903e+01|  5.2903e+01|
|         106|  2.3903e-01|   -2.793689|    1.903900|    0.259776|  2.6451e+01|  2.6451e+01|  2.6451e+01|
|         107|  2.3892e-01|   -2.807399|    1.903854|    0.259772|  2.9097e+01|  2.9097e+01|  2.9097e+01|
|         108|  2.3838e-01|   -2.902257|    1.903799|    0.259766|  3.2006e+01|  3.2006e+01|  3.2006e+01|
|         109|  2.3789e-01|   -2.888167|    1.903741|    0.259759|  3.5207e+01|  3.5207e+01|  3.5207e+01|
|         110|  2.3740e-01|   -2.861660|    1.903681|    0.259752|  3.8728e+01|  3.8728e+01|  3.8728e+01|
|         111|  2.3693e-01|   -2.886283|    1.903613|    0.259745|  1.9364e+01|  1.9364e+01|  1.9364e+01|
|         112|  2.3641e-01|   -2.865797|    1.903578|    0.259742|  2.1300e+01|  2.1300e+01|  2.1300e+01|
|         113|  2.3861e-01|   -2.862642|    1.903543|    0.259739|  2.3430e+01|  2.3430e+01|  2.3430e+01|
|         114|  2.3819e-01|   -2.899679|    1.903504|    0.259735|  2.5773e+01|  2.5773e+01|  2.5773e+01|
|         115|  2.3767e-01|   -2.891436|    1.903460|    0.259731|  2.8351e+01|  2.8351e+01|  2.8351e+01|
|         116|  2.3719e-01|   -2.840943|    1.903414|    0.259728|  1.4175e+01|  1.4175e+01|  1.4175e+01|
|         117|  2.3664e-01|   -2.822218|    1.903391|    0.259726|  7.0876e+00|  7.0876e+00|  7.0876e+00|
|         118|  2.3697e-01|   -2.882363|    1.903380|    0.259725|  3.5438e+00|  3.5438e+00|  3.5438e+00|
|         119|  2.3754e-01|   -3.034297|    1.903375|    0.259725|  3.8982e+00|  3.8982e+00|  3.8982e+00|
|         120|  2.3664e-01|   -3.028238|    1.903369|    0.259724|  4.2880e+00|  4.2880e+00|  4.2880e+00|
|         121|  2.3589e-01|   -3.078901|    1.903361|    0.259724|  4.7168e+00|  4.7168e+00|  4.7168e+00|
|         122|  2.3515e-01|   -3.181244|    1.903354|    0.259723|  5.1885e+00|  5.1885e+00|  5.1885e+00|
|         123|  2.3442e-01|   -3.316795|    1.903346|    0.259722|  5.7073e+00|  5.7073e+00|  5.7073e+00|
|         124|  2.3377e-01|   -3.392935|    1.903337|    0.259722|  6.2781e+00|  6.2781e+00|  6.2781e+00|
|         125|  2.3314e-01|   -3.275859|    1.903327|    0.259721|  6.9059e+00|  6.9059e+00|  6.9059e+00|
|         126|  2.3296e-01|   -3.422035|    1.903316|    0.259720|  7.5965e+00|  7.5965e+00|  7.5965e+00|
|         127|  2.3375e-01|   -3.544299|    1.903304|    0.259720|  8.3561e+00|  8.3561e+00|  8.3561e+00|
|         128|  2.3318e-01|   -3.124691|    1.903292|    0.259719|  9.1917e+00|  9.1917e+00|  9.1917e+00|
|         129|  2.3266e-01|   -3.158359|    1.903278|    0.259718|  1.0111e+01|  1.0111e+01|  1.0111e+01|
|         130|  2.3220e-01|   -3.333490|    1.903263|    0.259718|  1.1122e+01|  1.1122e+01|  1.1122e+01|
|         131|  2.3174e-01|   -3.334443|    1.903247|    0.259717|  1.2234e+01|  1.2234e+01|  1.2234e+01|
|         132|  2.3230e-01|   -3.260696|    1.903229|    0.259716|  1.3458e+01|  1.3458e+01|  1.3458e+01|
|         133|  2.3324e-01|   -3.231311|    1.903210|    0.259716|  1.4803e+01|  1.4803e+01|  1.4803e+01|
|         134|  2.3278e-01|   -3.203641|    1.903189|    0.259715|  1.6284e+01|  1.6284e+01|  1.6284e+01|
|         135|  2.3238e-01|   -3.159870|    1.903166|    0.259714|  1.7912e+01|  1.7912e+01|  1.7912e+01|
|         136|  2.3199e-01|   -3.196985|    1.903140|    0.259714|  1.9703e+01|  1.9703e+01|  1.9703e+01|
|         137|  2.3160e-01|   -3.134474|    1.903112|    0.259713|  2.1674e+01|  2.1674e+01|  2.1674e+01|
|         138|  2.3153e-01|   -3.137068|    1.903081|    0.259711|  2.3841e+01|  2.3841e+01|  2.3841e+01|
|         139|  2.3292e-01|   -3.125717|    1.903045|    0.259709|  2.6225e+01|  2.6225e+01|  2.6225e+01|
|         140|  2.3252e-01|   -3.124979|    1.903004|    0.259705|  2.8848e+01|  2.8848e+01|  2.8848e+01|
|         141|  2.3217e-01|   -3.113433|    1.902957|    0.259700|  3.1732e+01|  3.1732e+01|  3.1732e+01|
|         142|  2.3184e-01|   -3.061737|    1.902903|    0.259694|  3.4906e+01|  3.4906e+01|  3.4906e+01|
|         143|  2.3153e-01|   -3.140686|    1.902840|    0.259685|  3.8396e+01|  3.8396e+01|  3.8396e+01|
|         144|  2.3123e-01|   -3.141390|    1.902770|    0.259676|  4.2236e+01|  4.2236e+01|  4.2236e+01|
|         145|  2.3095e-01|   -3.177845|    1.902690|    0.259665|  4.6459e+01|  4.6459e+01|  4.6459e+01|
|         146|  2.3274e-01|   -3.253188|    1.902598|    0.259654|  5.1105e+01|  5.1105e+01|  5.1105e+01|
|         147|  2.3243e-01|   -3.142202|    1.902496|    0.259641|  5.6216e+01|  5.6216e+01|  5.6216e+01|
|         148|  2.3212e-01|   -3.029906|    1.902383|    0.259628|  6.1837e+01|  6.1837e+01|  6.1837e+01|
|         149|  2.3182e-01|   -3.009439|    1.902260|    0.259615|  6.8021e+01|  6.8021e+01|  6.8021e+01|
|         150|  2.3153e-01|   -3.139123|    1.902126|    0.259603|  7.4823e+01|  7.4823e+01|  7.4823e+01|
|         151|  2.3130e-01|   -2.990831|    1.901983|    0.259591|  8.2306e+01|  8.2306e+01|  8.2306e+01|
|         152|  2.3200e-01|   -2.931066|    1.901832|    0.259580|  4.1153e+01|  4.1153e+01|  4.1153e+01|
|         153|  2.3259e-01|   -2.865991|    1.901757|    0.259575|  2.0576e+01|  2.0576e+01|  2.0576e+01|
|         154|  2.3221e-01|   -2.835126|    1.901719|    0.259572|  1.0288e+01|  1.0288e+01|  1.0288e+01|
|         155|  2.3182e-01|   -2.876279|    1.901700|    0.259571|  5.1441e+00|  5.1441e+00|  5.1441e+00|
|         156|  2.3127e-01|   -2.890213|    1.901690|    0.259571|  5.6585e+00|  5.6585e+00|  5.6585e+00|
|         157|  2.3073e-01|   -2.953166|    1.901680|    0.259570|  6.2244e+00|  6.2244e+00|  6.2244e+00|
|         158|  2.3024e-01|   -3.013151|    1.901669|    0.259569|  6.8468e+00|  6.8468e+00|  6.8468e+00|
|         159|  2.2982e-01|   -3.169475|    1.901656|    0.259568|  7.5315e+00|  7.5315e+00|  7.5315e+00|
|         160|  2.2940e-01|   -3.138836|    1.901642|    0.259567|  8.2846e+00|  8.2846e+00|  8.2846e+00|
|         161|  2.2905e-01|   -3.176188|    1.901628|    0.259567|  9.1131e+00|  9.1131e+00|  9.1131e+00|
|         162|  2.2866e-01|   -3.080859|    1.901611|    0.259566|  1.0024e+01|  1.0024e+01|  1.0024e+01|
|         163|  2.2974e-01|   -3.095632|    1.901593|    0.259564|  1.1027e+01|  1.1027e+01|  1.1027e+01|
|         164|  2.2963e-01|   -3.138235|    1.901573|    0.259563|  1.2130e+01|  1.2130e+01|  1.2130e+01|
|         165|  2.2929e-01|   -3.100664|    1.901552|    0.259562|  1.3342e+01|  1.3342e+01|  1.3342e+01|
|         166|  2.2896e-01|   -3.123219|    1.901528|    0.259561|  1.4677e+01|  1.4677e+01|  1.4677e+01|
|         167|  2.2870e-01|   -3.045999|    1.901503|    0.259559|  1.6144e+01|  1.6144e+01|  1.6144e+01|
|         168|  2.2841e-01|   -3.077005|    1.901475|    0.259558|  1.7759e+01|  1.7759e+01|  1.7759e+01|
|         169|  2.2814e-01|   -2.997475|    1.901444|    0.259557|  1.9535e+01|  1.9535e+01|  1.9535e+01|
|         170|  2.2789e-01|   -2.972849|    1.901410|    0.259556|  2.1488e+01|  2.1488e+01|  2.1488e+01|
|         171|  2.2767e-01|   -3.045573|    1.901373|    0.259555|  2.3637e+01|  2.3637e+01|  2.3637e+01|
|         172|  2.2741e-01|   -3.077069|    1.901331|    0.259553|  2.6001e+01|  2.6001e+01|  2.6001e+01|
|         173|  2.2784e-01|   -3.016764|    1.901284|    0.259549|  2.8601e+01|  2.8601e+01|  2.8601e+01|
|         174|  2.2812e-01|   -3.035690|    1.901231|    0.259546|  3.1461e+01|  3.1461e+01|  3.1461e+01|
|         175|  2.2785e-01|   -3.128209|    1.901172|    0.259541|  3.4607e+01|  3.4607e+01|  3.4607e+01|
|         176|  2.2760e-01|   -3.081908|    1.901109|    0.259536|  3.8068e+01|  3.8068e+01|  3.8068e+01|
|         177|  2.2739e-01|   -3.104901|    1.901037|    0.259532|  4.1874e+01|  4.1874e+01|  4.1874e+01|
|         178|  2.2720e-01|   -3.105005|    1.900961|    0.259528|  4.6062e+01|  4.6062e+01|  4.6062e+01|
|         179|  2.2701e-01|   -3.062081|    1.900877|    0.259526|  5.0668e+01|  5.0668e+01|  5.0668e+01|
|         180|  2.2689e-01|   -3.082057|    1.900784|    0.259524|  5.5735e+01|  5.5735e+01|  5.5735e+01|
|         181|  2.2785e-01|   -3.015889|    1.900678|    0.259522|  6.1308e+01|  6.1308e+01|  6.1308e+01|
|         182|  2.2799e-01|   -3.050921|    1.900559|    0.259516|  6.7439e+01|  6.7439e+01|  6.7439e+01|
|         183|  2.2777e-01|   -2.994107|    1.900423|    0.259507|  7.4183e+01|  7.4183e+01|  7.4183e+01|
|         184|  2.2756e-01|   -3.039160|    1.900268|    0.259495|  8.1601e+01|  8.1601e+01|  8.1601e+01|
|         185|  2.2734e-01|   -3.017649|    1.900096|    0.259479|  8.9762e+01|  8.9762e+01|  8.9762e+01|
|         186|  2.2714e-01|   -2.893204|    1.899906|    0.259462|  9.8738e+01|  9.8738e+01|  9.8738e+01|
|         187|  2.2693e-01|   -2.953916|    1.899702|    0.259446|  9.8738e+01|  9.8738e+01|  9.8738e+01|
|         188|  2.2673e-01|   -2.891783|    1.899501|    0.259434|  9.8738e+01|  9.8738e+01|  9.8738e+01|
|         189|  2.2756e-01|   -2.819413|    1.899304|    0.259425|  1.0861e+02|  1.0861e+02|  1.0861e+02|
|         190|  2.2776e-01|   -2.835113|    1.899089|    0.259413|  1.0861e+02|  1.0861e+02|  1.0861e+02|
|         191|  2.2755e-01|   -2.785477|    1.898877|    0.259403|  5.4306e+01|  5.4306e+01|  5.4306e+01|
|         192|  2.2734e-01|   -2.766479|    1.898769|    0.259399|  2.7153e+01|  2.7153e+01|  2.7153e+01|
|         193|  2.2710e-01|   -2.839710|    1.898716|    0.259396|  2.9868e+01|  2.9868e+01|  2.9868e+01|
|         194|  2.2687e-01|   -2.818169|    1.898658|    0.259394|  3.2855e+01|  3.2855e+01|  3.2855e+01|
|         195|  2.2665e-01|   -2.898761|    1.898593|    0.259391|  3.6140e+01|  3.6140e+01|  3.6140e+01|
|         196|  2.2644e-01|   -2.930470|    1.898524|    0.259390|  3.9754e+01|  3.9754e+01|  3.9754e+01|
|         197|  2.2710e-01|   -2.871103|    1.898448|    0.259388|  4.3730e+01|  4.3730e+01|  4.3730e+01|
|         198|  2.2804e-01|   -2.894631|    1.898366|    0.259387|  2.1865e+01|  2.1865e+01|  2.1865e+01|
|         199|  2.2775e-01|   -2.847913|    1.898326|    0.259386|  1.0932e+01|  1.0932e+01|  1.0932e+01|
|         200|  2.2748e-01|   -2.804843|    1.898305|    0.259386|  5.4662e+00|  5.4662e+00|  5.4662e+00|
|         201|  2.2707e-01|   -2.851687|    1.898295|    0.259386|  6.0129e+00|  6.0129e+00|  6.0129e+00|
|         202|  2.2667e-01|   -2.915213|    1.898284|    0.259386|  6.6142e+00|  6.6142e+00|  6.6142e+00|
|         203|  2.2632e-01|   -2.889974|    1.898271|    0.259386|  7.2756e+00|  7.2756e+00|  7.2756e+00|
|         204|  2.2597e-01|   -2.949999|    1.898258|    0.259386|  8.0031e+00|  8.0031e+00|  8.0031e+00|
|         205|  2.2566e-01|   -3.066000|    1.898243|    0.259385|  8.8034e+00|  8.8034e+00|  8.8034e+00|
|         206|  2.2535e-01|   -3.027310|    1.898226|    0.259385|  9.6838e+00|  9.6838e+00|  9.6838e+00|
|         207|  2.2593e-01|   -3.067019|    1.898208|    0.259385|  1.0652e+01|  1.0652e+01|  1.0652e+01|
|         208|  2.2702e-01|   -3.100536|    1.898189|    0.259384|  1.1717e+01|  1.1717e+01|  1.1717e+01|
|         209|  2.2675e-01|   -3.118321|    1.898167|    0.259384|  1.2889e+01|  1.2889e+01|  1.2889e+01|
|         210|  2.2651e-01|   -3.126085|    1.898143|    0.259383|  1.4178e+01|  1.4178e+01|  1.4178e+01|
|         211|  2.2627e-01|   -3.101789|    1.898116|    0.259382|  1.5596e+01|  1.5596e+01|  1.5596e+01|
|         212|  2.2604e-01|   -2.943478|    1.898087|    0.259381|  1.7155e+01|  1.7155e+01|  1.7155e+01|
|         213|  2.2581e-01|   -3.028134|    1.898055|    0.259380|  1.8871e+01|  1.8871e+01|  1.8871e+01|
|         214|  2.2558e-01|   -3.092292|    1.898019|    0.259378|  2.0758e+01|  2.0758e+01|  2.0758e+01|
|         215|  2.2536e-01|   -3.073588|    1.897979|    0.259376|  2.2834e+01|  2.2834e+01|  2.2834e+01|
|         216|  2.2617e-01|   -3.139479|    1.897935|    0.259373|  2.5117e+01|  2.5117e+01|  2.5117e+01|
|         217|  2.2654e-01|   -3.091594|    1.897885|    0.259370|  2.7629e+01|  2.7629e+01|  2.7629e+01|
|         218|  2.2633e-01|   -3.119673|    1.897829|    0.259365|  3.0392e+01|  3.0392e+01|  3.0392e+01|
|         219|  2.2614e-01|   -3.118468|    1.897766|    0.259361|  3.3431e+01|  3.3431e+01|  3.3431e+01|
|         220|  2.2595e-01|   -3.108016|    1.897697|    0.259355|  1.6716e+01|  1.6716e+01|  1.6716e+01|
|         221|  2.2573e-01|   -3.112637|    1.897661|    0.259353|  8.3578e+00|  8.3578e+00|  8.3578e+00|
|         222|  2.2545e-01|   -3.109570|    1.897643|    0.259351|  4.1789e+00|  4.1789e+00|  4.1789e+00|
|         223|  2.2506e-01|   -3.156346|    1.897634|    0.259350|  2.0894e+00|  2.0894e+00|  2.0894e+00|
|         224|  2.2472e-01|   -3.177875|    1.897629|    0.259350|  1.0447e+00|  1.0447e+00|  1.0447e+00|
|         225|  2.2529e-01|   -3.306897|    1.897627|    0.259350|  1.0000e+00|  1.0000e+00|  1.0000e+00|
|         226|  2.2488e-01|   -3.869941|    1.897625|    0.259350|  1.1000e+00|  1.1000e+00|  1.1000e+00|
|         227|  2.2441e-01|   -3.926915|    1.897623|    0.259350|  1.2100e+00|  1.2100e+00|  1.2100e+00|
|         228|  2.2399e-01|   -3.999388|    1.897620|    0.259349|  1.3310e+00|  1.3310e+00|  1.3310e+00|
|         229|  2.2357e-01|   -3.897459|    1.897617|    0.259349|  1.4641e+00|  1.4641e+00|  1.4641e+00|
|         230|  2.2317e-01|   -4.070143|    1.897614|    0.259349|  1.6105e+00|  1.6105e+00|  1.6105e+00|
|         231|  2.2275e-01|   -4.109652|    1.897611|    0.259349|  1.7716e+00|  1.7716e+00|  1.7716e+00|
|         232|  2.2236e-01|   -4.168367|    1.897607|    0.259348|  1.9487e+00|  1.9487e+00|  1.9487e+00|
|         233|  2.2197e-01|   -4.154219|    1.897603|    0.259348|  2.1436e+00|  2.1436e+00|  2.1436e+00|
|         234|  2.2254e-01|   -3.988649|    1.897598|    0.259348|  2.3579e+00|  2.3579e+00|  2.3579e+00|
|         235|  2.2249e-01|   -3.973092|    1.897593|    0.259347|  2.5937e+00|  2.5937e+00|  2.5937e+00|
|         236|  2.2213e-01|   -3.797675|    1.897587|    0.259347|  2.8531e+00|  2.8531e+00|  2.8531e+00|
|         237|  2.2177e-01|   -3.467421|    1.897581|    0.259346|  3.1384e+00|  3.1384e+00|  3.1384e+00|
|         238|  2.2143e-01|   -3.327786|    1.897574|    0.259346|  3.4523e+00|  3.4523e+00|  3.4523e+00|
|         239|  2.2107e-01|   -3.289533|    1.897566|    0.259345|  3.7975e+00|  3.7975e+00|  3.7975e+00|
|         240|  2.2073e-01|   -3.306793|    1.897558|    0.259345|  4.1772e+00|  4.1772e+00|  4.1772e+00|
|         241|  2.2042e-01|   -3.286424|    1.897549|    0.259344|  4.5950e+00|  4.5950e+00|  4.5950e+00|
|         242|  2.2012e-01|   -3.293681|    1.897539|    0.259343|  5.0545e+00|  5.0545e+00|  5.0545e+00|
|         243|  2.1982e-01|   -3.278959|    1.897527|    0.259342|  5.5599e+00|  5.5599e+00|  5.5599e+00|
|         244|  2.2057e-01|   -3.281196|    1.897515|    0.259342|  6.1159e+00|  6.1159e+00|  6.1159e+00|
|         245|  2.2051e-01|   -3.273209|    1.897501|    0.259341|  6.7275e+00|  6.7275e+00|  6.7275e+00|
|         246|  2.2023e-01|   -3.274404|    1.897486|    0.259340|  7.4002e+00|  7.4002e+00|  7.4002e+00|
|         247|  2.1998e-01|   -3.265190|    1.897469|    0.259338|  8.1403e+00|  8.1403e+00|  8.1403e+00|
|         248|  2.1976e-01|   -3.252334|    1.897451|    0.259337|  8.9543e+00|  8.9543e+00|  8.9543e+00|
|         249|  2.1955e-01|   -3.167892|    1.897430|    0.259336|  9.8497e+00|  9.8497e+00|  9.8497e+00|
|         250|  2.1937e-01|   -3.158632|    1.897407|    0.259334|  1.0835e+01|  1.0835e+01|  1.0835e+01|
|         251|  2.1945e-01|   -3.128594|    1.897382|    0.259332|  1.1918e+01|  1.1918e+01|  1.1918e+01|
|         252|  2.2016e-01|   -3.142387|    1.897354|    0.259330|  1.3110e+01|  1.3110e+01|  1.3110e+01|
|         253|  2.1997e-01|   -3.114578|    1.897322|    0.259327|  1.4421e+01|  1.4421e+01|  1.4421e+01|
|         254|  2.1980e-01|   -3.126975|    1.897287|    0.259324|  1.5863e+01|  1.5863e+01|  1.5863e+01|
|         255|  2.1962e-01|   -3.139613|    1.897247|    0.259320|  1.7449e+01|  1.7449e+01|  1.7449e+01|
|         256|  2.1947e-01|   -3.128546|    1.897203|    0.259316|  1.9194e+01|  1.9194e+01|  1.9194e+01|
|         257|  2.1931e-01|   -3.093951|    1.897154|    0.259311|  9.5972e+00|  9.5972e+00|  9.5972e+00|
|         258|  2.1910e-01|   -3.110127|    1.897129|    0.259309|  1.0557e+01|  1.0557e+01|  1.0557e+01|
|         259|  2.1893e-01|   -3.417599|    1.897101|    0.259306|  1.1613e+01|  1.1613e+01|  1.1613e+01|
|         260|  2.1877e-01|   -3.284637|    1.897071|    0.259303|  1.2774e+01|  1.2774e+01|  1.2774e+01|
|         261|  2.1861e-01|   -3.112253|    1.897037|    0.259300|  6.3869e+00|  6.3869e+00|  6.3869e+00|
|         262|  2.1887e-01|   -3.158014|    1.897020|    0.259298|  7.0256e+00|  7.0256e+00|  7.0256e+00|
|         263|  2.1905e-01|   -3.298989|    1.897001|    0.259296|  7.7282e+00|  7.7282e+00|  7.7282e+00|
|         264|  2.1880e-01|   -3.287529|    1.896980|    0.259294|  8.5010e+00|  8.5010e+00|  8.5010e+00|
|         265|  2.1861e-01|   -3.238601|    1.896957|    0.259292|  9.3511e+00|  9.3511e+00|  9.3511e+00|
|         266|  2.1841e-01|   -3.105293|    1.896932|    0.259289|  1.0286e+01|  1.0286e+01|  1.0286e+01|
|         267|  2.1824e-01|   -3.140893|    1.896904|    0.259286|  1.1315e+01|  1.1315e+01|  1.1315e+01|
|         268|  2.1808e-01|   -3.227293|    1.896873|    0.259283|  1.2446e+01|  1.2446e+01|  1.2446e+01|
|         269|  2.1793e-01|   -3.171578|    1.896839|    0.259279|  1.3691e+01|  1.3691e+01|  1.3691e+01|
|         270|  2.1778e-01|   -3.085549|    1.896801|    0.259275|  1.5060e+01|  1.5060e+01|  1.5060e+01|
|         271|  2.1763e-01|   -3.120348|    1.896759|    0.259270|  1.6566e+01|  1.6566e+01|  1.6566e+01|
|         272|  2.1793e-01|   -3.122081|    1.896714|    0.259265|  1.8223e+01|  1.8223e+01|  1.8223e+01|
|         273|  2.1832e-01|   -3.114966|    1.896664|    0.259259|  2.0045e+01|  2.0045e+01|  2.0045e+01|
|         274|  2.1818e-01|   -3.137170|    1.896610|    0.259253|  2.2049e+01|  2.2049e+01|  2.2049e+01|
|         275|  2.1804e-01|   -3.113209|    1.896550|    0.259246|  2.4254e+01|  2.4254e+01|  2.4254e+01|
|         276|  2.1791e-01|   -3.092854|    1.896487|    0.259239|  2.6680e+01|  2.6680e+01|  2.6680e+01|
|         277|  2.1778e-01|   -3.246774|    1.896417|    0.259232|  2.9348e+01|  2.9348e+01|  2.9348e+01|
|         278|  2.1766e-01|   -3.241496|    1.896343|    0.259225|  3.2282e+01|  3.2282e+01|  3.2282e+01|
|         279|  2.1755e-01|   -3.140566|    1.896263|    0.259217|  3.5511e+01|  3.5511e+01|  3.5511e+01|
|         280|  2.1745e-01|   -3.145244|    1.896177|    0.259209|  3.9062e+01|  3.9062e+01|  3.9062e+01|
|         281|  2.1735e-01|   -3.145244|    1.896084|    0.259201|  4.2968e+01|  4.2968e+01|  4.2968e+01|
|         282|  2.1724e-01|   -3.117588|    1.895984|    0.259193|  4.7265e+01|  4.7265e+01|  4.7265e+01|
|         283|  2.1715e-01|   -3.083453|    1.895876|    0.259183|  5.1991e+01|  5.1991e+01|  5.1991e+01|
|         284|  2.1783e-01|   -3.165914|    1.895759|    0.259173|  5.7190e+01|  5.7190e+01|  5.7190e+01|
|         285|  2.1797e-01|   -3.254039|    1.895630|    0.259162|  6.2909e+01|  6.2909e+01|  6.2909e+01|
|         286|  2.1786e-01|   -3.241999|    1.895488|    0.259149|  6.9200e+01|  6.9200e+01|  6.9200e+01|
|         287|  2.1776e-01|   -3.280144|    1.895331|    0.259135|  7.6120e+01|  7.6120e+01|  7.6120e+01|
|         288|  2.1767e-01|   -3.191245|    1.895159|    0.259119|  8.3732e+01|  8.3732e+01|  8.3732e+01|
|         289|  2.1757e-01|   -3.107371|    1.894965|    0.259102|  9.2106e+01|  9.2106e+01|  9.2106e+01|
|         290|  2.1747e-01|   -3.094754|    1.894754|    0.259083|  9.2106e+01|  9.2106e+01|  9.2106e+01|
|         291|  2.1738e-01|   -3.376161|    1.894543|    0.259066|  4.6053e+01|  4.6053e+01|  4.6053e+01|
|         292|  2.1728e-01|   -3.493011|    1.894438|    0.259057|  5.0658e+01|  5.0658e+01|  5.0658e+01|
|         293|  2.1789e-01|   -3.300792|    1.894318|    0.259048|  5.5724e+01|  5.5724e+01|  5.5724e+01|
|         294|  2.1835e-01|   -3.277775|    1.894189|    0.259039|  6.1296e+01|  6.1296e+01|  6.1296e+01|
|         295|  2.1824e-01|   -3.255293|    1.894048|    0.259028|  6.7426e+01|  6.7426e+01|  6.7426e+01|
|         296|  2.1814e-01|   -3.289798|    1.893891|    0.259016|  7.4169e+01|  7.4169e+01|  7.4169e+01|
|         297|  2.1806e-01|   -3.217571|    1.893712|    0.259001|  8.1585e+01|  8.1585e+01|  8.1585e+01|
|         298|  2.1797e-01|   -3.074220|    1.893515|    0.258981|  8.9744e+01|  8.9744e+01|  8.9744e+01|
|         299|  2.1787e-01|   -3.021680|    1.893299|    0.258960|  8.9744e+01|  8.9744e+01|  8.9744e+01|
|         300|  2.1778e-01|   -2.988994|    1.893082|    0.258937|  8.9744e+01|  8.9744e+01|  8.9744e+01|
|         301|  2.1781e-01|   -2.943404|    1.892863|    0.258914|  9.8718e+01|  9.8718e+01|  9.8718e+01|
|         302|  2.1873e-01|   -2.919492|    1.892627|    0.258891|  4.9359e+01|  4.9359e+01|  4.9359e+01|
|         303|  2.1864e-01|   -2.887489|    1.892509|    0.258879|  2.4680e+01|  2.4680e+01|  2.4680e+01|
|         304|  2.1851e-01|   -2.838967|    1.892450|    0.258874|  1.2340e+01|  1.2340e+01|  1.2340e+01|
|         305|  2.1837e-01|   -2.831330|    1.892419|    0.258871|  6.1699e+00|  6.1699e+00|  6.1699e+00|
|         306|  2.1817e-01|   -2.906590|    1.892404|    0.258870|  3.0849e+00|  3.0849e+00|  3.0849e+00|
|         307|  2.1790e-01|   -3.009194|    1.892396|    0.258869|  1.5425e+00|  1.5425e+00|  1.5425e+00|
|         308|  2.1758e-01|   -3.075633|    1.892392|    0.258869|  1.0000e+00|  1.0000e+00|  1.0000e+00|
|         309|  2.1728e-01|   -3.364549|    1.892390|    0.258868|  1.1000e+00|  1.1000e+00|  1.1000e+00|
|         310|  2.1697e-01|   -3.406225|    1.892387|    0.258868|  1.2100e+00|  1.2100e+00|  1.2100e+00|
|         311|  2.1666e-01|   -3.403691|    1.892384|    0.258868|  1.3310e+00|  1.3310e+00|  1.3310e+00|
|         312|  2.1639e-01|   -3.397110|    1.892381|    0.258867|  1.4641e+00|  1.4641e+00|  1.4641e+00|
|         313|  2.1686e-01|   -3.398557|    1.892378|    0.258867|  1.6105e+00|  1.6105e+00|  1.6105e+00|
|         314|  2.1709e-01|   -3.426135|    1.892374|    0.258867|  1.7716e+00|  1.7716e+00|  1.7716e+00|
|         315|  2.1679e-01|   -3.453099|    1.892370|    0.258866|  1.9487e+00|  1.9487e+00|  1.9487e+00|
|         316|  2.1651e-01|   -3.447714|    1.892365|    0.258866|  2.1436e+00|  2.1436e+00|  2.1436e+00|
|         317|  2.1624e-01|   -3.520480|    1.892360|    0.258865|  2.3579e+00|  2.3579e+00|  2.3579e+00|
|         318|  2.1596e-01|   -3.541816|    1.892354|    0.258865|  2.5937e+00|  2.5937e+00|  2.5937e+00|
|         319|  2.1569e-01|   -3.612354|    1.892347|    0.258864|  2.8531e+00|  2.8531e+00|  2.8531e+00|
|         320|  2.1544e-01|   -3.476725|    1.892340|    0.258864|  3.1384e+00|  3.1384e+00|  3.1384e+00|
|         321|  2.1520e-01|   -3.358367|    1.892333|    0.258863|  3.4523e+00|  3.4523e+00|  3.4523e+00|
|         322|  2.1497e-01|   -3.054142|    1.892324|    0.258862|  3.7975e+00|  3.7975e+00|  3.7975e+00|
|         323|  2.1472e-01|   -3.242054|    1.892315|    0.258861|  1.8987e+00|  1.8987e+00|  1.8987e+00|
|         324|  2.1446e-01|   -3.174976|    1.892310|    0.258861|  1.0000e+00|  1.0000e+00|  1.0000e+00|
|         325|  2.1479e-01|   -3.332214|    1.892308|    0.258861|  1.0000e+00|  1.0000e+00|  1.0000e+00|
|         326|  2.1506e-01|   -3.550822|    1.892305|    0.258860|  1.0000e+00|  1.0000e+00|  1.0000e+00|
|         327|  2.1475e-01|   -3.478321|    1.892303|    0.258860|  1.0000e+00|  1.0000e+00|  1.0000e+00|
|         328|  2.1446e-01|   -3.190237|    1.892300|    0.258860|  1.0000e+00|  1.0000e+00|  1.0000e+00|
|         329|  2.1418e-01|   -3.378133|    1.892298|    0.258860|  1.1000e+00|  1.1000e+00|  1.1000e+00|
|         330|  2.1390e-01|   -3.436193|    1.892295|    0.258859|  1.2100e+00|  1.2100e+00|  1.2100e+00|
|         331|  2.1362e-01|   -3.496543|    1.892292|    0.258859|  1.3310e+00|  1.3310e+00|  1.3310e+00|
|         332|  2.1334e-01|   -3.535973|    1.892289|    0.258859|  1.4641e+00|  1.4641e+00|  1.4641e+00|
|         333|  2.1308e-01|   -3.553203|    1.892285|    0.258858|  1.6105e+00|  1.6105e+00|  1.6105e+00|
|         334|  2.1283e-01|   -3.579849|    1.892281|    0.258858|  1.7716e+00|  1.7716e+00|  1.7716e+00|
|         335|  2.1258e-01|   -3.609944|    1.892277|    0.258858|  1.9487e+00|  1.9487e+00|  1.9487e+00|
|         336|  2.1233e-01|   -3.640738|    1.892272|    0.258857|  2.1436e+00|  2.1436e+00|  2.1436e+00|
|         337|  2.1246e-01|   -3.683802|    1.892267|    0.258857|  2.3579e+00|  2.3579e+00|  2.3579e+00|
|         338|  2.1278e-01|   -3.738779|    1.892261|    0.258856|  2.5937e+00|  2.5937e+00|  2.5937e+00|
|         339|  2.1254e-01|   -3.748210|    1.892255|    0.258855|  2.8531e+00|  2.8531e+00|  2.8531e+00|
|         340|  2.1232e-01|   -3.760914|    1.892248|    0.258855|  3.1384e+00|  3.1384e+00|  3.1384e+00|
|         341|  2.1211e-01|   -3.779240|    1.892240|    0.258854|  3.4523e+00|  3.4523e+00|  3.4523e+00|
|         342|  2.1190e-01|   -3.796252|    1.892231|    0.258853|  3.7975e+00|  3.7975e+00|  3.7975e+00|
|         343|  2.1171e-01|   -3.712998|    1.892222|    0.258852|  4.1772e+00|  4.1772e+00|  4.1772e+00|
|         344|  2.1152e-01|   -3.738444|    1.892211|    0.258851|  4.5950e+00|  4.5950e+00|  4.5950e+00|
|         345|  2.1134e-01|   -3.797849|    1.892200|    0.258850|  5.0545e+00|  5.0545e+00|  5.0545e+00|
|         346|  2.1192e-01|   -3.902820|    1.892188|    0.258849|  5.5599e+00|  5.5599e+00|  5.5599e+00|
|         347|  2.1189e-01|   -3.857295|    1.892174|    0.258847|  6.1159e+00|  6.1159e+00|  6.1159e+00|
|         348|  2.1173e-01|   -3.690570|    1.892159|    0.258846|  6.7275e+00|  6.7275e+00|  6.7275e+00|
|         349|  2.1158e-01|   -3.280765|    1.892143|    0.258845|  7.4002e+00|  7.4002e+00|  7.4002e+00|
|         350|  2.1142e-01|   -3.269768|    1.892125|    0.258843|  8.1403e+00|  8.1403e+00|  8.1403e+00|
|         351|  2.1129e-01|   -3.334782|    1.892106|    0.258842|  8.9543e+00|  8.9543e+00|  8.9543e+00|
|         352|  2.1117e-01|   -3.288783|    1.892084|    0.258840|  9.8497e+00|  9.8497e+00|  9.8497e+00|
|         353|  2.1106e-01|   -3.182559|    1.892061|    0.258839|  1.0835e+01|  1.0835e+01|  1.0835e+01|
|         354|  2.1096e-01|   -3.232874|    1.892035|    0.258837|  1.1918e+01|  1.1918e+01|  1.1918e+01|
|         355|  2.1087e-01|   -3.243778|    1.892007|    0.258836|  1.3110e+01|  1.3110e+01|  1.3110e+01|
|         356|  2.1130e-01|   -3.236806|    1.891977|    0.258834|  1.4421e+01|  1.4421e+01|  1.4421e+01|
|         357|  2.1147e-01|   -3.227229|    1.891943|    0.258832|  1.5863e+01|  1.5863e+01|  1.5863e+01|
|         358|  2.1138e-01|   -3.228949|    1.891905|    0.258830|  1.7449e+01|  1.7449e+01|  1.7449e+01|
|         359|  2.1129e-01|   -3.238207|    1.891864|    0.258827|  1.9194e+01|  1.9194e+01|  1.9194e+01|
|         360|  2.1121e-01|   -3.231261|    1.891818|    0.258824|  2.1114e+01|  2.1114e+01|  2.1114e+01|
|         361|  2.1112e-01|   -3.234424|    1.891767|    0.258820|  2.3225e+01|  2.3225e+01|  2.3225e+01|
|         362|  2.1103e-01|   -3.101789|    1.891710|    0.258815|  2.5548e+01|  2.5548e+01|  2.5548e+01|
|         363|  2.1095e-01|   -3.055098|    1.891648|    0.258810|  1.0000e+00|  1.0000e+00|  1.0000e+00|
|         364|  2.1070e-01|   -3.076470|    1.891645|    0.258810|  1.1000e+00|  1.1000e+00|  1.1000e+00|
|         365|  2.1045e-01|   -3.201783|    1.891643|    0.258809|  1.2100e+00|  1.2100e+00|  1.2100e+00|
|         366|  2.1019e-01|   -3.260320|    1.891640|    0.258809|  1.3310e+00|  1.3310e+00|  1.3310e+00|
|         367|  2.1039e-01|   -3.315081|    1.891636|    0.258809|  1.4641e+00|  1.4641e+00|  1.4641e+00|
|         368|  2.1049e-01|   -3.289039|    1.891633|    0.258809|  1.6105e+00|  1.6105e+00|  1.6105e+00|
|         369|  2.1025e-01|   -3.356788|    1.891629|    0.258808|  1.7716e+00|  1.7716e+00|  1.7716e+00|
|         370|  2.1003e-01|   -3.336854|    1.891624|    0.258808|  1.9487e+00|  1.9487e+00|  1.9487e+00|
|         371|  2.0981e-01|   -3.454686|    1.891620|    0.258807|  2.1436e+00|  2.1436e+00|  2.1436e+00|
|         372|  2.0959e-01|   -3.483173|    1.891614|    0.258807|  2.3579e+00|  2.3579e+00|  2.3579e+00|
|         373|  2.0937e-01|   -3.467343|    1.891608|    0.258806|  2.5937e+00|  2.5937e+00|  2.5937e+00|
|         374|  2.0916e-01|   -3.509394|    1.891602|    0.258806|  2.8531e+00|  2.8531e+00|  2.8531e+00|
|         375|  2.0894e-01|   -3.273272|    1.891595|    0.258805|  3.1384e+00|  3.1384e+00|  3.1384e+00|
|         376|  2.0875e-01|   -3.491049|    1.891587|    0.258804|  3.4523e+00|  3.4523e+00|  3.4523e+00|
|         377|  2.0856e-01|   -3.453445|    1.891578|    0.258803|  3.7975e+00|  3.7975e+00|  3.7975e+00|
|         378|  2.0838e-01|   -3.253905|    1.891569|    0.258802|  4.1772e+00|  4.1772e+00|  4.1772e+00|
|         379|  2.0820e-01|   -2.995206|    1.891559|    0.258801|  4.5950e+00|  4.5950e+00|  4.5950e+00|
|         380|  2.0803e-01|   -3.219612|    1.891547|    0.258800|  5.0545e+00|  5.0545e+00|  5.0545e+00|
|         381|  2.0823e-01|   -3.171597|    1.891534|    0.258799|  5.5599e+00|  5.5599e+00|  5.5599e+00|
|         382|  2.0838e-01|   -3.207884|    1.891520|    0.258797|  6.1159e+00|  6.1159e+00|  6.1159e+00|
|         383|  2.0823e-01|   -3.235429|    1.891505|    0.258795|  6.7275e+00|  6.7275e+00|  6.7275e+00|
|         384|  2.0810e-01|   -3.525560|    1.891488|    0.258793|  7.4002e+00|  7.4002e+00|  7.4002e+00|
|         385|  2.0799e-01|   -3.385010|    1.891469|    0.258791|  8.1403e+00|  8.1403e+00|  8.1403e+00|
|         386|  2.0788e-01|   -3.169026|    1.891448|    0.258788|  8.9543e+00|  8.9543e+00|  8.9543e+00|
|         387|  2.0777e-01|   -3.278129|    1.891425|    0.258785|  9.8497e+00|  9.8497e+00|  9.8497e+00|
|         388|  2.0774e-01|   -3.397342|    1.891400|    0.258782|  1.0835e+01|  1.0835e+01|  1.0835e+01|
|         389|  2.0768e-01|   -3.320603|    1.891372|    0.258779|  1.1918e+01|  1.1918e+01|  1.1918e+01|
|         390|  2.0762e-01|   -3.172552|    1.891342|    0.258775|  1.3110e+01|  1.3110e+01|  1.3110e+01|
|         391|  2.0756e-01|   -3.244096|    1.891309|    0.258772|  1.4421e+01|  1.4421e+01|  1.4421e+01|
|         392|  2.0750e-01|   -3.289878|    1.891273|    0.258768|  1.5863e+01|  1.5863e+01|  1.5863e+01|
|         393|  2.0802e-01|   -3.260554|    1.891234|    0.258765|  1.7449e+01|  1.7449e+01|  1.7449e+01|
|         394|  2.0809e-01|   -3.200772|    1.891191|    0.258762|  1.9194e+01|  1.9194e+01|  1.9194e+01|
|         395|  2.0802e-01|   -3.230644|    1.891144|    0.258759|  2.1114e+01|  2.1114e+01|  2.1114e+01|
|         396|  2.0795e-01|   -3.223684|    1.891092|    0.258757|  2.3225e+01|  2.3225e+01|  2.3225e+01|
|         397|  2.0790e-01|   -3.221083|    1.891036|    0.258753|  2.5548e+01|  2.5548e+01|  2.5548e+01|
|         398|  2.0785e-01|   -3.247202|    1.890972|    0.258750|  2.8102e+01|  2.8102e+01|  2.8102e+01|
|         399|  2.0781e-01|   -3.234319|    1.890901|    0.258744|  3.0913e+01|  3.0913e+01|  3.0913e+01|
|         400|  2.0777e-01|   -3.224924|    1.890820|    0.258737|  3.4004e+01|  3.4004e+01|  3.4004e+01|
|         401|  2.0775e-01|   -3.229560|    1.890730|    0.258727|  3.7404e+01|  3.7404e+01|  3.7404e+01|
|         402|  2.0796e-01|   -3.220230|    1.890629|    0.258715|  4.1145e+01|  4.1145e+01|  4.1145e+01|
|         403|  2.0839e-01|   -3.218031|    1.890516|    0.258700|  4.5259e+01|  4.5259e+01|  4.5259e+01|
|         404|  2.0833e-01|   -3.305863|    1.890390|    0.258683|  4.9785e+01|  4.9785e+01|  4.9785e+01|
|         405|  2.0829e-01|   -3.259686|    1.890253|    0.258664|  5.4764e+01|  5.4764e+01|  5.4764e+01|
|         406|  2.0825e-01|   -3.204884|    1.890104|    0.258645|  6.0240e+01|  6.0240e+01|  6.0240e+01|
|         407|  2.0820e-01|   -3.223609|    1.889943|    0.258627|  6.6264e+01|  6.6264e+01|  6.6264e+01|
|         408|  2.0816e-01|   -3.188113|    1.889770|    0.258609|  7.2890e+01|  7.2890e+01|  7.2890e+01|
|         409|  2.0815e-01|   -3.194719|    1.889583|    0.258591|  8.0180e+01|  8.0180e+01|  8.0180e+01|
|         410|  2.0817e-01|   -3.242211|    1.889378|    0.258572|  8.0180e+01|  8.0180e+01|  8.0180e+01|
|         411|  2.0836e-01|   -3.172950|    1.889173|    0.258554|  8.8197e+01|  8.8197e+01|  8.8197e+01|
|         412|  2.0890e-01|   -3.091650|    1.888945|    0.258533|  8.8197e+01|  8.8197e+01|  8.8197e+01|
|         413|  2.0886e-01|   -3.022913|    1.888720|    0.258511|  9.7017e+01|  9.7017e+01|  9.7017e+01|
|         414|  2.0884e-01|   -2.973906|    1.888473|    0.258487|  9.7017e+01|  9.7017e+01|  9.7017e+01|
|         415|  2.0884e-01|   -2.931865|    1.888224|    0.258464|  1.0672e+02|  1.0672e+02|  1.0672e+02|
|         416|  2.0880e-01|   -2.921303|    1.887953|    0.258439|  5.3359e+01|  5.3359e+01|  5.3359e+01|
|         417|  2.0876e-01|   -2.890278|    1.887817|    0.258427|  5.8695e+01|  5.8695e+01|  5.8695e+01|
|         418|  2.0871e-01|   -2.914827|    1.887664|    0.258415|  6.4565e+01|  6.4565e+01|  6.4565e+01|
|         419|  2.0867e-01|   -2.905185|    1.887497|    0.258401|  7.1021e+01|  7.1021e+01|  7.1021e+01|
|         420|  2.0910e-01|   -2.884382|    1.887312|    0.258387|  7.8124e+01|  7.8124e+01|  7.8124e+01|
|         421|  2.0930e-01|   -2.859050|    1.887107|    0.258370|  8.5936e+01|  8.5936e+01|  8.5936e+01|
|         422|  2.0928e-01|   -2.833367|    1.886879|    0.258351|  9.4530e+01|  9.4530e+01|  9.4530e+01|
|         423|  2.0925e-01|   -2.850269|    1.886627|    0.258325|  4.7265e+01|  4.7265e+01|  4.7265e+01|
|         424|  2.0923e-01|   -2.911908|    1.886498|    0.258314|  2.3632e+01|  2.3632e+01|  2.3632e+01|
|         425|  2.0919e-01|   -3.024755|    1.886435|    0.258307|  1.1816e+01|  1.1816e+01|  1.1816e+01|
|         426|  2.0912e-01|   -3.098322|    1.886403|    0.258304|  1.2998e+01|  1.2998e+01|  1.2998e+01|
|         427|  2.0905e-01|   -3.147203|    1.886367|    0.258300|  1.4298e+01|  1.4298e+01|  1.4298e+01|
|         428|  2.0898e-01|   -3.100489|    1.886328|    0.258297|  1.5727e+01|  1.5727e+01|  1.5727e+01|
|         429|  2.0941e-01|   -3.107365|    1.886284|    0.258292|  1.7300e+01|  1.7300e+01|  1.7300e+01|
|         430|  2.0965e-01|   -2.889451|    1.886237|    0.258288|  8.6500e+00|  8.6500e+00|  8.6500e+00|
|         431|  2.0954e-01|   -2.961733|    1.886213|    0.258285|  4.3250e+00|  4.3250e+00|  4.3250e+00|
|         432|  2.0938e-01|   -2.915948|    1.886202|    0.258284|  2.1625e+00|  2.1625e+00|  2.1625e+00|
|         433|  2.0919e-01|   -2.974678|    1.886196|    0.258284|  2.3788e+00|  2.3788e+00|  2.3788e+00|
|         434|  2.0902e-01|   -3.272548|    1.886189|    0.258283|  2.6166e+00|  2.6166e+00|  2.6166e+00|
|         435|  2.0886e-01|   -3.326981|    1.886182|    0.258282|  2.8783e+00|  2.8783e+00|  2.8783e+00|
|         436|  2.0870e-01|   -3.299343|    1.886174|    0.258282|  3.1661e+00|  3.1661e+00|  3.1661e+00|
|         437|  2.0854e-01|   -3.247790|    1.886166|    0.258281|  3.4827e+00|  3.4827e+00|  3.4827e+00|
|         438|  2.0837e-01|   -3.275080|    1.886156|    0.258280|  3.8310e+00|  3.8310e+00|  3.8310e+00|
|         439|  2.0822e-01|   -3.215319|    1.886146|    0.258279|  4.2141e+00|  4.2141e+00|  4.2141e+00|
|         440|  2.0843e-01|   -3.286560|    1.886135|    0.258278|  4.6355e+00|  4.6355e+00|  4.6355e+00|
|         441|  2.0890e-01|   -3.266025|    1.886122|    0.258277|  5.0991e+00|  5.0991e+00|  5.0991e+00|
|         442|  2.0879e-01|   -2.961999|    1.886108|    0.258275|  5.6090e+00|  5.6090e+00|  5.6090e+00|
|         443|  2.0865e-01|   -3.184197|    1.886093|    0.258274|  6.1699e+00|  6.1699e+00|  6.1699e+00|
|         444|  2.0853e-01|   -3.209942|    1.886077|    0.258273|  6.7869e+00|  6.7869e+00|  6.7869e+00|
|         445|  2.0842e-01|   -3.210024|    1.886059|    0.258271|  7.4656e+00|  7.4656e+00|  7.4656e+00|
|         446|  2.0832e-01|   -3.245343|    1.886039|    0.258269|  8.2121e+00|  8.2121e+00|  8.2121e+00|
|         447|  2.0823e-01|   -3.161357|    1.886017|    0.258268|  9.0333e+00|  9.0333e+00|  9.0333e+00|
|         448|  2.0814e-01|   -3.242299|    1.885993|    0.258266|  9.9367e+00|  9.9367e+00|  9.9367e+00|
|         449|  2.0807e-01|   -3.442526|    1.885966|    0.258264|  1.0930e+01|  1.0930e+01|  1.0930e+01|
|         450|  2.0834e-01|   -3.333060|    1.885937|    0.258262|  1.2023e+01|  1.2023e+01|  1.2023e+01|
|         451|  2.0862e-01|   -3.173338|    1.885906|    0.258260|  1.3226e+01|  1.3226e+01|  1.3226e+01|
|         452|  2.0855e-01|   -3.256707|    1.885870|    0.258258|  1.4548e+01|  1.4548e+01|  1.4548e+01|
|         453|  2.0848e-01|   -3.322371|    1.885832|    0.258255|  1.6003e+01|  1.6003e+01|  1.6003e+01|
|         454|  2.0843e-01|   -3.279846|    1.885789|    0.258252|  1.7603e+01|  1.7603e+01|  1.7603e+01|
|         455|  2.0836e-01|   -3.186711|    1.885741|    0.258249|  1.9364e+01|  1.9364e+01|  1.9364e+01|
|         456|  2.0830e-01|   -3.231880|    1.885689|    0.258245|  2.1300e+01|  2.1300e+01|  2.1300e+01|
|         457|  2.0830e-01|   -3.208321|    1.885631|    0.258240|  2.3430e+01|  2.3430e+01|  2.3430e+01|
|         458|  2.0870e-01|   -3.204737|    1.885566|    0.258233|  2.5773e+01|  2.5773e+01|  2.5773e+01|
|         459|  2.0864e-01|   -3.333843|    1.885494|    0.258225|  2.8351e+01|  2.8351e+01|  2.8351e+01|
|         460|  2.0859e-01|   -3.267002|    1.885413|    0.258215|  3.1186e+01|  3.1186e+01|  3.1186e+01|
|         461|  2.0855e-01|   -3.200370|    1.885323|    0.258203|  3.4304e+01|  3.4304e+01|  3.4304e+01|
|         462|  2.0851e-01|   -3.236105|    1.885223|    0.258189|  3.7735e+01|  3.7735e+01|  3.7735e+01|
|         463|  2.0847e-01|   -3.216095|    1.885113|    0.258174|  4.1508e+01|  4.1508e+01|  4.1508e+01|
|         464|  2.0846e-01|   -3.222743|    1.884992|    0.258159|  4.5659e+01|  4.5659e+01|  4.5659e+01|
|         465|  2.0906e-01|   -3.216279|    1.884859|    0.258144|  2.2829e+01|  2.2829e+01|  2.2829e+01|
|         466|  2.0899e-01|   -3.198469|    1.884793|    0.258136|  1.1415e+01|  1.1415e+01|  1.1415e+01|
|         467|  2.0892e-01|   -3.241578|    1.884759|    0.258133|  5.7073e+00|  5.7073e+00|  5.7073e+00|
|         468|  2.0880e-01|   -3.199465|    1.884743|    0.258131|  2.8537e+00|  2.8537e+00|  2.8537e+00|
|         469|  2.0865e-01|   -3.526894|    1.884734|    0.258130|  1.4268e+00|  1.4268e+00|  1.4268e+00|
|         470|  2.0846e-01|   -3.772940|    1.884730|    0.258130|  1.5695e+00|  1.5695e+00|  1.5695e+00|
|         471|  2.0830e-01|   -4.006515|    1.884726|    0.258129|  1.7265e+00|  1.7265e+00|  1.7265e+00|
|         472|  2.0813e-01|   -4.097547|    1.884721|    0.258128|  1.8991e+00|  1.8991e+00|  1.8991e+00|
|         473|  2.0797e-01|   -4.125841|    1.884715|    0.258128|  2.0890e+00|  2.0890e+00|  2.0890e+00|
|         474|  2.0806e-01|   -4.157893|    1.884709|    0.258127|  2.2979e+00|  2.2979e+00|  2.2979e+00|
|         475|  2.0837e-01|   -4.083789|    1.884702|    0.258126|  2.5277e+00|  2.5277e+00|  2.5277e+00|
|         476|  2.0821e-01|   -4.115505|    1.884694|    0.258126|  2.7805e+00|  2.7805e+00|  2.7805e+00|
|         477|  2.0807e-01|   -4.133592|    1.884686|    0.258125|  3.0586e+00|  3.0586e+00|  3.0586e+00|
|         478|  2.0793e-01|   -4.057119|    1.884677|    0.258124|  3.3644e+00|  3.3644e+00|  3.3644e+00|
|         479|  2.0781e-01|   -4.089004|    1.884667|    0.258123|  3.7008e+00|  3.7008e+00|  3.7008e+00|
|         480|  2.0769e-01|   -4.054006|    1.884657|    0.258121|  4.0709e+00|  4.0709e+00|  4.0709e+00|
|         481|  2.0758e-01|   -3.957525|    1.884645|    0.258120|  4.4780e+00|  4.4780e+00|  4.4780e+00|
|         482|  2.0747e-01|   -3.834616|    1.884632|    0.258119|  4.9258e+00|  4.9258e+00|  4.9258e+00|
|         483|  2.0766e-01|   -3.560436|    1.884617|    0.258117|  5.4184e+00|  5.4184e+00|  5.4184e+00|
|         484|  2.0785e-01|   -3.419231|    1.884601|    0.258116|  5.9603e+00|  5.9603e+00|  5.9603e+00|
|         485|  2.0774e-01|   -3.182400|    1.884584|    0.258114|  2.9801e+00|  2.9801e+00|  2.9801e+00|
|         486|  2.0761e-01|   -3.267897|    1.884575|    0.258113|  1.4901e+00|  1.4901e+00|  1.4901e+00|
|         487|  2.0748e-01|   -3.563713|    1.884570|    0.258113|  1.6391e+00|  1.6391e+00|  1.6391e+00|
|         488|  2.0737e-01|   -3.802435|    1.884566|    0.258112|  1.8030e+00|  1.8030e+00|  1.8030e+00|
|         489|  2.0724e-01|   -4.133912|    1.884560|    0.258112|  1.9833e+00|  1.9833e+00|  1.9833e+00|
|         490|  2.0710e-01|   -4.084311|    1.884554|    0.258111|  2.1816e+00|  2.1816e+00|  2.1816e+00|
|         491|  2.0697e-01|   -4.281698|    1.884548|    0.258110|  2.3998e+00|  2.3998e+00|  2.3998e+00|
|         492|  2.0685e-01|   -4.158153|    1.884541|    0.258110|  2.6397e+00|  2.6397e+00|  2.6397e+00|
|         493|  2.0672e-01|   -4.285514|    1.884533|    0.258109|  2.9037e+00|  2.9037e+00|  2.9037e+00|
|         494|  2.0660e-01|   -4.258425|    1.884524|    0.258108|  3.1941e+00|  3.1941e+00|  3.1941e+00|
|         495|  2.0716e-01|   -4.298668|    1.884515|    0.258107|  3.5135e+00|  3.5135e+00|  3.5135e+00|
|         496|  2.0703e-01|   -4.197564|    1.884504|    0.258106|  3.8648e+00|  3.8648e+00|  3.8648e+00|
|         497|  2.0691e-01|   -4.081614|    1.884493|    0.258105|  4.2513e+00|  4.2513e+00|  4.2513e+00|
|         498|  2.0679e-01|   -3.884485|    1.884480|    0.258103|  4.6765e+00|  4.6765e+00|  4.6765e+00|
|         499|  2.0668e-01|   -3.699824|    1.884467|    0.258102|  5.1441e+00|  5.1441e+00|  5.1441e+00|

----------------------------- Solver Exit -------------------------------

Maximum number of iterations reached (ITER = 500) before convergence.
+-----------------------------------------------------------------------+
|      Convergence Field     |     Value    |   Criterion  |  Converged |
+-----------------------------------------------------------------------+
|                  Cauchy[CL]|   3.40869e-05|       < 1e-06|          No|
+-----------------------------------------------------------------------+
-------------------------------------------------------------------------
+-----------------------------------------------------------------------+
|        File Writing Summary       |              Filename             |
+-----------------------------------------------------------------------+
|SU2 binary restart                 |restart_flow.dat                   |

Writing the forces breakdown file (forces_breakdown.dat).
|Paraview                           |flow.vtu                           |

Writing the forces breakdown file (forces_breakdown.dat).
|Paraview surface                   |surface_flow.vtu                   |

Writing the forces breakdown file (forces_breakdown.dat).
+-----------------------------------------------------------------------+

--------------------------- Finalizing Solver ---------------------------
Deleted CNumerics container.
Deleted CIntegration container.
Deleted CSolver container.
Deleted CIteration container.
Deleted CInterface container.
Deleted CGeometry container.
Deleted CFreeFormDefBox class.
Deleted CSurfaceMovement class.
Deleted CVolumetricMovement class.
Deleted CConfig container.
Deleted nInst container.
Deleted COutput class.
-------------------------------------------------------------------------

------------------------- Exit Success (SU2_CFD) ------------------------

