
-------------------------------------------------------------------------
|    ___ _   _ ___                                                      |
|   / __| | | |_  )   Release 8.0.0 "Harrier"                           |
|   \__ \ |_| |/ /                                                      |
|   |___/\___//___|   Suite (Computational Fluid Dynamics Code)         |
|                                                                       |
-------------------------------------------------------------------------
| SU2 Project Website: https://su2code.github.io                        |
|                                                                       |
| The SU2 Project is maintained by the SU2 Foundation                   |
| (http://su2foundation.org)                                            |
-------------------------------------------------------------------------
| Copyright 2012-2023, SU2 Contributors                                 |
|                                                                       |
| SU2 is free software; you can redistribute it and/or                  |
| modify it under the terms of the GNU Lesser General Public            |
| License as published by the Free Software Foundation; either          |
| version 2.1 of the License, or (at your option) any later version.    |
|                                                                       |
| SU2 is distributed in the hope that it will be useful,                |
| but WITHOUT ANY WARRANTY; without even the implied warranty of        |
| MERCHANTABILITY or FITNESS FOR A PARTICULAR PURPOSE. See the GNU      |
| Lesser General Public License for more details.                       |
|                                                                       |
| You should have received a copy of the GNU Lesser General Public      |
| License along with SU2. If not, see <http://www.gnu.org/licenses/>.   |
-------------------------------------------------------------------------

Parsing config file for zone 0

----------------- Physical Case Definition ( Zone 0 ) -------------------
Compressible RANS equations.
Turbulence model: Spalart-Allmaras-noft2
Hybrid RANS/LES: No Hybrid RANS/LES
Mach number: 0.734.
Angle of attack (AoA): 2.31 deg, and angle of sideslip (AoS): 0 deg.
Reynolds number: 6.5e+06. Reference length 1.
Fixed CL mode, target value: 0.824.
Reading and writing binary SU2 native restart files.
Read flow solution from: solution_flow.dat.
Dimensional simulation.
The reference area is 1 m^2.
The semi-span will be computed using the max y(3D) value.
The reference length is 1 m.
Reference origin for moment evaluation is (0.25, 0, 0).
Surface(s) where the force coefficients are evaluated: AIRFOIL.

Surface(s) plotted in the output file: AIRFOIL.
Surface(s) affected by the design variables: AIRFOIL.
Input mesh file name: mesh_RAE2822_turb_deform.su2

--------------- Space Numerical Integration ( Zone 0 ) ------------------
Jameson-Schmidt-Turkel scheme (2nd order in space) for the flow inviscid terms.
JST viscous coefficients (2nd & 4th): 0.5, 0.02.
The method includes a grid stretching correction (p = 0.3).
Scalar upwind solver for the turbulence model.
First order integration in space.
Average of gradients with correction (viscous flow terms).
Average of gradients with correction (viscous turbulence terms).
Gradient for viscous and source terms: inverse-distance weighted Least-Squares.

--------------- Time Numerical Integration  ( Zone 0 ) ------------------
Local time stepping (steady state simulation).
Euler implicit method for the flow equations.
FGMRES is used for solving the linear system.
Using a ILU(0) preconditioning.
Convergence criteria of the linear solver: 1e-06.
Max number of linear iterations: 10.
No CFL adaptation.
Courant-Friedrichs-Lewy number:       10
Euler implicit time integration for the turbulence model.

------------------ Convergence Criteria  ( Zone 0 ) ---------------------
Maximum number of solver subiterations: 5500.
Begin convergence monitoring at iteration 10.
Residual minimum value: 1e-12.
Cauchy series min. value: 1e-06.
Number of Cauchy elements: 100.
Begin windowed time average at iteration 0.

-------------------- Output Information ( Zone 0 ) ----------------------
File writing frequency: 
+------------------------------------+
|                     File| Frequency|
+------------------------------------+
|                  RESTART|     10000|
|                 PARAVIEW|     10000|
|         SURFACE_PARAVIEW|     10000|
|              SURFACE_CSV|     10000|
+------------------------------------+
Writing the convergence history file every 1 inner iterations.
Writing the screen convergence history every 1 inner iterations.
The tabular file format is CSV (.csv).
Convergence history file name: history_direct.
Forces breakdown file name: forces_breakdown.dat.
Surface file name: surface_flow.
Volume file name: flow.
Restart file name: restart_flow.dat.

------------- Config File Boundary Information ( Zone 0 ) ---------------
+-----------------------------------------------------------------------+
|                        Marker Type|                        Marker Name|
+-----------------------------------------------------------------------+
|                          Far-field|                           FARFIELD|
+-----------------------------------------------------------------------+
|                     Heat flux wall|                            AIRFOIL|
+-----------------------------------------------------------------------+

-------------------- Output Preprocessing ( Zone 0 ) --------------------

WARNING: SURFACE_PRESSURE_DROP can only be computed for at least 2 surfaces (outlet, inlet, ...)

Screen output fields: INNER_ITER, RMS_DENSITY, RMS_NU_TILDE, LIFT, DRAG
History output group(s): ITER, RMS_RES, AERO_COEFF
Convergence field(s): RMS_DENSITY
Warning: No (valid) fields chosen for time convergence monitoring. Time convergence monitoring inactive.
Volume output fields: COORDINATES, SOLUTION, PRIMITIVE

------------------- Geometry Preprocessing ( Zone 0 ) -------------------
Two dimensional problem.
13937 grid points before partitioning.
22842 volume elements before partitioning.
2 surface markers.
192 boundary elements in index 0 (Marker = AIRFOIL).
40 boundary elements in index 1 (Marker = FARFIELD).
Executing the partitioning functions.
Building the graph adjacency structure.
Calling ParMETIS... graph partitioning complete (831 edge cuts).
Distributing ParMETIS coloring.
Rebalancing vertices.
Rebalancing volume element connectivity.
Rebalancing markers and surface elements.
14875 vertices including ghost points. 
23674 interior elements including halo cells. 
18780 triangles.
4894 quadrilaterals.
Establishing MPI communication patterns.
Setting point connectivity.
Renumbering points (Reverse Cuthill McKee Ordering).
Recomputing point connectivity.
Setting element connectivity.
Checking the numerical grid orientation.
All volume elements are correctly orientend.
All surface elements are correctly orientend.
Identifying edges and vertices.
Setting the control volume structure.
Area of the computational grid: 32209.9.
Searching for the closest normal neighbors to the surfaces.
Storing a mapping from global to local point index.
Compute the surface curvature.
Max K: 186.693. Mean K: 8.04607. Standard deviation K: 25.2362.
Checking for periodicity.
Computing mesh quality statistics for the dual control volumes.
+--------------------------------------------------------------+
|           Mesh Quality Metric|        Minimum|        Maximum|
+--------------------------------------------------------------+
|    Orthogonality Angle (deg.)|        74.8969|        89.9999|
|     CV Face Area Aspect Ratio|        1.00457|        3358.33|
|           CV Sub-Volume Ratio|         1.0005|         1217.4|
+--------------------------------------------------------------+
Finding max control volume width.
Communicating number of neighbors.
Wetted area = 2.02153 m.
Area projection in the x-plane = 0.126038 m, y-plane = 0.995873 m.
Max. coordinate in the x-direction = 1 m, y-direction = 0.0619944 m.
Min. coordinate in the x-direction = 0 m, y-direction = -0.0607658 m.
Computing wall distances.

-------------------- Solver Preprocessing ( Zone 0 ) --------------------
WARNING: AoA in the solution file (2.78037 deg.) +
         AoA offset in mesh file (0 deg.) = 2.78037 deg.
WARNING: SU2 will use the dCD/dCL provided in the direct solution file: 0.0174054.
WARNING: SU2 will use the dCMz/dCL provided in the direct solution file: 0.000576541.
Viscous flow: Computing pressure using the ideal gas law
based on the free-stream temperature and a density computed
from the Reynolds number.
Force coefficients computed using free-stream values.

-- Models:
+------------------------------------------------------------------------------+
|          Viscosity Model|        Conductivity Model|              Fluid Model|
+------------------------------------------------------------------------------+
|               SUTHERLAND|          CONSTANT_PRANDTL|             STANDARD_AIR|
+------------------------------------------------------------------------------+
-- Fluid properties:
+------------------------------------------------------------------------------+
|                  Name|    Dim. value|    Ref. value|      Unit|Non-dim. value|
+------------------------------------------------------------------------------+
|        Ref. Viscosity|     1.716e-05|             1|   N.s/m^2|     1.716e-05|
|      Sutherland Temp.|        273.15|             1|         K|        273.15|
|     Sutherland Const.|         110.4|             1|         K|         110.4|
+------------------------------------------------------------------------------+
|        Prandtl (Lam.)|             -|             -|         -|          0.71|
|       Prandtl (Turb.)|             -|             -|         -|           0.9|
+------------------------------------------------------------------------------+
|          Gas Constant|       287.058|             1|  N.m/kg.K|       287.058|
|      Spec. Heat Ratio|             -|             -|         -|           1.4|
+------------------------------------------------------------------------------+
-- Initial and free-stream conditions:
+------------------------------------------------------------------------------+
|                  Name|    Dim. value|    Ref. value|      Unit|Non-dim. value|
+------------------------------------------------------------------------------+
|       Static Pressure|         38515|             1|        Pa|         38515|
|               Density|      0.465631|             1|    kg/m^3|      0.465631|
|           Temperature|        288.15|             1|         K|        288.15|
|          Total Energy|        237984|             1|   m^2/s^2|        237984|
|            Velocity-X|       249.484|             1|       m/s|       249.484|
|            Velocity-Y|       12.1161|             1|       m/s|       12.1161|
|    Velocity Magnitude|       249.778|             1|       m/s|       249.778|
+------------------------------------------------------------------------------+
|             Viscosity|    1.7893e-05|             1|   N.s/m^2|    1.7893e-05|
|          Conductivity|             -|             1|   W/m^2.K|             -|
|     Turb. Kin. Energy|       233.959|             1|   m^2/s^2|       233.959|
|     Spec. Dissipation|        608834|             1|       1/s|        608834|
+------------------------------------------------------------------------------+
|           Mach Number|             -|             -|         -|         0.734|
|       Reynolds Number|             -|             -|         -|       6.5e+06|
+------------------------------------------------------------------------------+
Initialize Jacobian structure (Navier-Stokes). MG level: 0.
Initialize Jacobian structure (SA model).

------------------- Numerics Preprocessing ( Zone 0 ) -------------------

----------------- Integration Preprocessing ( Zone 0 ) ------------------

------------------- Iteration Preprocessing ( Zone 0 ) ------------------
Euler/Navier-Stokes/RANS fluid iteration.

------------------------------ Begin Solver -----------------------------

Simulation Run using the Single-zone Driver
WARNING: SU2 was not compiled for an AVX-capable architecture. Performance could be better,
         see https://su2code.github.io/docs_v7/Build-SU2-Linux-MacOS/#compiler-optimizations
+----------------------------------------------------------------+
|  Inner_Iter|    rms[Rho]|     rms[nu]|          CL|          CD|
+----------------------------------------------------------------+
|           0|   -4.576822|   -5.904988|    0.823844|    0.012221|
|           1|   -4.628902|   -5.999977|    0.823758|    0.012218|
|           2|   -4.685113|   -6.117269|    0.823724|    0.012212|
|           3|   -4.730622|   -6.253509|    0.823722|    0.012208|
|           4|   -4.764579|   -6.398614|    0.823737|    0.012205|
|           5|   -4.787255|   -6.521807|    0.823754|    0.012205|
|           6|   -4.799877|   -6.575727|    0.823766|    0.012205|
|           7|   -4.804591|   -6.561679|    0.823770|    0.012205|
|           8|   -4.803202|   -6.526505|    0.823765|    0.012202|
|           9|   -4.796812|   -6.497560|    0.823754|    0.012197|
|          10|   -4.786412|   -6.480572|    0.823739|    0.012189|
|          11|   -4.773367|   -6.473474|    0.823722|    0.012179|
|          12|   -4.759304|   -6.472257|    0.823706|    0.012166|
|          13|   -4.745674|   -6.472747|    0.823690|    0.012152|
|          14|   -4.733446|   -6.471207|    0.823678|    0.012136|
|          15|   -4.723069|   -6.464870|    0.823670|    0.012118|
|          16|   -4.714618|   -6.452644|    0.823667|    0.012100|
|          17|   -4.707970|   -6.435498|    0.823669|    0.012082|
|          18|   -4.702927|   -6.415951|    0.823676|    0.012065|
|          19|   -4.699258|   -6.396936|    0.823688|    0.012048|
|          20|   -4.696717|   -6.380777|    0.823703|    0.012031|
|          21|   -4.695050|   -6.368728|    0.823721|    0.012016|
|          22|   -4.694038|   -6.360964|    0.823740|    0.012003|
|          23|   -4.693527|   -6.356827|    0.823758|    0.011990|
|          24|   -4.693440|   -6.355164|    0.823775|    0.011980|
|          25|   -4.693756|   -6.354718|    0.823789|    0.011970|
|          26|   -4.694460|   -6.354495|    0.823801|    0.011962|
|          27|   -4.695501|   -6.354037|    0.823808|    0.011955|
|          28|   -4.696782|   -6.353482|    0.823813|    0.011949|
|          29|   -4.698172|   -6.353430|    0.823814|    0.011943|
|          30|   -4.699545|   -6.354686|    0.823812|    0.011939|
|          31|   -4.700808|   -6.358015|    0.823808|    0.011934|
|          32|   -4.701914|   -6.363964|    0.823803|    0.011931|
|          33|   -4.702857|   -6.372766|    0.823798|    0.011927|
|          34|   -4.703643|   -6.384307|    0.823792|    0.011923|
|          35|   -4.704275|   -6.398124|    0.823788|    0.011919|
|          36|   -4.704737|   -6.413423|    0.823786|    0.011916|
|          37|   -4.704999|   -6.429147|    0.823787|    0.011912|
|          38|   -4.705023|   -6.444093|    0.823790|    0.011908|
|          39|   -4.704778|   -6.457111|    0.823797|    0.011904|
|          40|   -4.704251|   -6.467344|    0.823807|    0.011900|
|          41|   -4.703447|   -6.474439|    0.823821|    0.011897|
|          42|   -4.702390|   -6.478613|    0.823838|    0.011893|
|          43|   -4.701114|   -6.480570|    0.823858|    0.011890|
|          44|   -4.699658|   -6.481280|    0.823882|    0.011887|
|          45|   -4.698056|   -6.481740|    0.823908|    0.011885|
|          46|   -4.696328|   -6.482793|    0.823936|    0.011883|
|          47|   -4.694475|   -6.485030|    0.823965|    0.011882|
|          48|   -4.692484|   -6.488754|    0.823996|    0.011881|
|          49|   -4.690326|   -6.493991|    0.824026|    0.011881|
|          50|   -4.687961|   -6.500521|    0.824056|    0.011882|
|          51|   -4.685350|   -6.507933|    0.824086|    0.011883|
|          52|   -4.682464|   -6.515681|    0.824114|    0.011885|
|          53|   -4.679291|   -6.523170|    0.824140|    0.011888|
|          54|   -4.675842|   -6.529850|    0.824164|    0.011891|
|          55|   -4.672154|   -6.535317|    0.824185|    0.011894|
|          56|   -4.668281|   -6.539373|    0.824204|    0.011898|
|          57|   -4.664293|   -6.542057|    0.824221|    0.011902|
|          58|   -4.660264|   -6.543605|    0.824234|    0.011906|
|          59|   -4.656264|   -6.544374|    0.824246|    0.011910|
|          60|   -4.652354|   -6.544746|    0.824255|    0.011915|
|          61|   -4.648582|   -6.545041|    0.824261|    0.011920|
|          62|   -4.644977|   -6.545463|    0.824266|    0.011925|
|          63|   -4.641557|   -6.546079|    0.824269|    0.011930|
|          64|   -4.638323|   -6.546832|    0.824271|    0.011936|
|          65|   -4.635269|   -6.547581|    0.824272|    0.011941|
|          66|   -4.632383|   -6.548151|    0.824271|    0.011946|
|          67|   -4.629653|   -6.548390|    0.824270|    0.011952|
|          68|   -4.627064|   -6.548217|    0.824268|    0.011957|
|          69|   -4.624609|   -6.547639|    0.824266|    0.011963|
|          70|   -4.622282|   -6.546752|    0.824263|    0.011969|
|          71|   -4.620086|   -6.545718|    0.824259|    0.011974|
|          72|   -4.618024|   -6.544732|    0.824256|    0.011980|
|          73|   -4.616104|   -6.543981|    0.824252|    0.011985|
|          74|   -4.614337|   -6.543618|    0.824248|    0.011991|
|          75|   -4.612731|   -6.543742|    0.824243|    0.011996|
|          76|   -4.611297|   -6.544397|    0.824238|    0.012001|
|          77|   -4.610040|   -6.545575|    0.824233|    0.012006|
|          78|   -4.608966|   -6.547232|    0.824228|    0.012011|
|          79|   -4.608076|   -6.549298|    0.824222|    0.012015|
|          80|   -4.607369|   -6.551703|    0.824217|    0.012020|
|          81|   -4.606839|   -6.554379|    0.824211|    0.012024|
|          82|   -4.606478|   -6.557277|    0.824206|    0.012028|
|          83|   -4.606272|   -6.560361|    0.824200|    0.012032|
|          84|   -4.606205|   -6.563608|    0.824195|    0.012036|
|          85|   -4.606257|   -6.567003|    0.824190|    0.012040|
|          86|   -4.606406|   -6.570530|    0.824185|    0.012044|
|          87|   -4.606625|   -6.574173|    0.824181|    0.012047|
|          88|   -4.606890|   -6.577907|    0.824177|    0.012051|
|          89|   -4.607174|   -6.581698|    0.824173|    0.012054|
|          90|   -4.607453|   -6.585506|    0.824169|    0.012057|
|          91|   -4.607708|   -6.589280|    0.824166|    0.012060|
|          92|   -4.607926|   -6.592973|    0.824163|    0.012064|
|          93|   -4.608099|   -6.596535|    0.824159|    0.012067|
|          94|   -4.608230|   -6.599924|    0.824156|    0.012070|
|          95|   -4.608328|   -6.603108|    0.824153|    0.012072|
|          96|   -4.608411|   -6.606068|    0.824150|    0.012075|
|          97|   -4.608505|   -6.608793|    0.824146|    0.012078|
|          98|   -4.608638|   -6.611283|    0.824142|    0.012080|
|          99|   -4.608842|   -6.613550|    0.824138|    0.012082|
|         100|   -4.609149|   -6.615611|    0.824133|    0.012084|
|         101|   -4.609588|   -6.617492|    0.824127|    0.012077|
+-----------------------------------------------------------------------+
|Fixed CL Mode                           |Value                         |
+-----------------------------------------------------------------------+
|Current CL                              |0.824127                      |
|Target CL                               |0.824                         |
|Previous AOA                            |2.78037                       |
|Changed AoA by                          |-0.000663428                  |
+-----------------------------------------------------------------------+
+----------------------------------------------------------------+
|  Inner_Iter|    rms[Rho]|     rms[nu]|          CL|          CD|
+----------------------------------------------------------------+
|         102|   -3.371103|   -6.615211|    0.824121|    0.012078|
|         103|   -3.755744|   -6.618919|    0.824114|    0.012080|
|         104|   -4.002318|   -6.621005|    0.824107|    0.012081|
|         105|   -4.081627|   -6.622736|    0.824099|    0.012081|
|         106|   -4.131800|   -6.624339|    0.824090|    0.012082|
|         107|   -4.193783|   -6.625881|    0.824081|    0.012082|
|         108|   -4.265888|   -6.627392|    0.824071|    0.012082|
|         109|   -4.333387|   -6.628889|    0.824061|    0.012081|
|         110|   -4.382317|   -6.630386|    0.824051|    0.012080|
|         111|   -4.411014|   -6.631889|    0.824040|    0.012079|
|         112|   -4.426076|   -6.633402|    0.824029|    0.012078|
|         113|   -4.433191|   -6.634934|    0.824018|    0.012076|
|         114|   -4.435812|   -6.636499|    0.824008|    0.012074|
|         115|   -4.437048|   -6.638106|    0.823997|    0.012072|
|         116|   -4.439791|   -6.639760|    0.823987|    0.012070|
|         117|   -4.445715|   -6.641465|    0.823977|    0.012067|
|         118|   -4.454756|   -6.643226|    0.823967|    0.012064|
|         119|   -4.465483|   -6.645048|    0.823958|    0.012061|
|         120|   -4.476038|   -6.646941|    0.823950|    0.012059|
|         121|   -4.485125|   -6.648911|    0.823942|    0.012055|
|         122|   -4.492469|   -6.650969|    0.823934|    0.012052|
|         123|   -4.498561|   -6.653111|    0.823927|    0.012049|
|         124|   -4.504039|   -6.655338|    0.823921|    0.012046|
|         125|   -4.509236|   -6.657656|    0.823915|    0.012042|
|         126|   -4.514090|   -6.660069|    0.823910|    0.012039|
|         127|   -4.518295|   -6.662583|    0.823905|    0.012036|
|         128|   -4.521511|   -6.665202|    0.823901|    0.012032|
|         129|   -4.523495|   -6.667930|    0.823897|    0.012029|
|         130|   -4.524148|   -6.670771|    0.823894|    0.012026|
|         131|   -4.523530|   -6.673724|    0.823891|    0.012022|
|         132|   -4.521844|   -6.676787|    0.823888|    0.012019|
|         133|   -4.519403|   -6.679954|    0.823885|    0.012016|
|         134|   -4.516568|   -6.683218|    0.823882|    0.012012|
|         135|   -4.513671|   -6.686572|    0.823880|    0.012009|
|         136|   -4.510962|   -6.690005|    0.823877|    0.012006|
|         137|   -4.508575|   -6.693509|    0.823874|    0.012002|
|         138|   -4.506530|   -6.697072|    0.823872|    0.011999|
|         139|   -4.504755|   -6.700685|    0.823869|    0.011996|
|         140|   -4.503122|   -6.704334|    0.823866|    0.011992|
|         141|   -4.501486|   -6.708008|    0.823863|    0.011989|
|         142|   -4.499723|   -6.711695|    0.823860|    0.011986|
|         143|   -4.497760|   -6.715382|    0.823857|    0.011982|
|         144|   -4.495589|   -6.719056|    0.823854|    0.011979|
|         145|   -4.493266|   -6.722706|    0.823850|    0.011976|
|         146|   -4.490889|   -6.726319|    0.823847|    0.011972|
|         147|   -4.488572|   -6.729889|    0.823844|    0.011969|
|         148|   -4.486413|   -6.733407|    0.823840|    0.011966|
|         149|   -4.484479|   -6.736872|    0.823837|    0.011963|
|         150|   -4.482793|   -6.740289|    0.823833|    0.011960|
|         151|   -4.481343|   -6.743658|    0.823830|    0.011956|
|         152|   -4.480089|   -6.746990|    0.823827|    0.011953|
|         153|   -4.478977|   -6.750296|    0.823823|    0.011950|
|         154|   -4.477954|   -6.753595|    0.823820|    0.011948|
|         155|   -4.476978|   -6.756913|    0.823817|    0.011945|
|         156|   -4.476024|   -6.760279|    0.823815|    0.011942|
|         157|   -4.475083|   -6.763727|    0.823812|    0.011940|
|         158|   -4.474159|   -6.767290|    0.823809|    0.011937|
|         159|   -4.473267|   -6.771001|    0.823807|    0.011935|
|         160|   -4.472424|   -6.774892|    0.823805|    0.011933|
|         161|   -4.471646|   -6.778990|    0.823803|    0.011931|
|         162|   -4.470946|   -6.783327|    0.823801|    0.011929|
|         163|   -4.470331|   -6.787928|    0.823800|    0.011927|
|         164|   -4.469806|   -6.792819|    0.823798|    0.011926|
|         165|   -4.469368|   -6.798018|    0.823797|    0.011925|
|         166|   -4.469018|   -6.803547|    0.823796|    0.011923|
|         167|   -4.468751|   -6.809416|    0.823795|    0.011922|
|         168|   -4.468564|   -6.815624|    0.823794|    0.011922|
|         169|   -4.468453|   -6.822164|    0.823794|    0.011921|
|         170|   -4.468413|   -6.829021|    0.823793|    0.011921|
|         171|   -4.468438|   -6.836176|    0.823793|    0.011920|
|         172|   -4.468521|   -6.843604|    0.823793|    0.011920|
|         173|   -4.468653|   -6.851279|    0.823792|    0.011920|
|         174|   -4.468824|   -6.859171|    0.823792|    0.011920|
|         175|   -4.469021|   -6.867249|    0.823793|    0.011921|
|         176|   -4.469229|   -6.875479|    0.823793|    0.011921|
|         177|   -4.469433|   -6.883831|    0.823793|    0.011922|
|         178|   -4.469619|   -6.892273|    0.823794|    0.011923|
|         179|   -4.469771|   -6.900775|    0.823794|    0.011924|
|         180|   -4.469876|   -6.909309|    0.823795|    0.011925|
|         181|   -4.469926|   -6.917848|    0.823796|    0.011926|
|         182|   -4.469915|   -6.926371|    0.823797|    0.011928|
|         183|   -4.469842|   -6.934857|    0.823798|    0.011929|
|         184|   -4.469713|   -6.943281|    0.823799|    0.011931|
|         185|   -4.469542|   -6.951625|    0.823800|    0.011933|
|         186|   -4.469346|   -6.959871|    0.823802|    0.011935|
|         187|   -4.469154|   -6.968007|    0.823803|    0.011937|
|         188|   -4.468998|   -6.976014|    0.823805|    0.011939|
|         189|   -4.468919|   -6.983874|    0.823807|    0.011941|
|         190|   -4.468961|   -6.991570|    0.823808|    0.011943|
|         191|   -4.469174|   -6.999086|    0.823810|    0.011946|
|         192|   -4.469609|   -7.006407|    0.823812|    0.011948|
|         193|   -4.470319|   -7.013518|    0.823814|    0.011951|
|         194|   -4.471357|   -7.020407|    0.823816|    0.011953|
|         195|   -4.472775|   -7.027065|    0.823818|    0.011956|
|         196|   -4.474621|   -7.033487|    0.823820|    0.011959|
|         197|   -4.476939|   -7.039671|    0.823822|    0.011961|
|         198|   -4.479767|   -7.045619|    0.823824|    0.011964|
|         199|   -4.483137|   -7.051335|    0.823826|    0.011967|
|         200|   -4.487074|   -7.056830|    0.823828|    0.011970|
|         201|   -4.491593|   -7.062119|    0.823830|    0.011985|
+-----------------------------------------------------------------------+
|Fixed CL Mode                           |Value                         |
+-----------------------------------------------------------------------+
|Current CL                              |0.82383                       |
|Target CL                               |0.824                         |
|Previous AOA                            |2.7797                        |
|Changed AoA by                          |0.000859911                   |
+-----------------------------------------------------------------------+
+----------------------------------------------------------------+
|  Inner_Iter|    rms[Rho]|     rms[nu]|          CL|          CD|
+----------------------------------------------------------------+
|         202|   -3.258254|   -7.015382|    0.823832|    0.011988|
|         203|   -3.639866|   -7.044008|    0.823833|    0.011991|
|         204|   -3.875804|   -7.056048|    0.823835|    0.011994|
|         205|   -3.948488|   -7.064557|    0.823836|    0.011997|
|         206|   -3.997236|   -7.071752|    0.823838|    0.012000|
|         207|   -4.060225|   -7.078228|    0.823839|    0.012003|
|         208|   -4.136298|   -7.084221|    0.823840|    0.012006|
|         209|   -4.212622|   -7.089889|    0.823841|    0.012009|
|         210|   -4.275341|   -7.095301|    0.823842|    0.012011|
|         211|   -4.319618|   -7.100449|    0.823842|    0.012014|
|         212|   -4.348627|   -7.105302|    0.823842|    0.012017|
|         213|   -4.366359|   -7.109875|    0.823842|    0.012019|
|         214|   -4.375992|   -7.114222|    0.823842|    0.012022|
|         215|   -4.381484|   -7.118379|    0.823842|    0.012024|
|         216|   -4.387151|   -7.122354|    0.823841|    0.012027|
|         217|   -4.395897|   -7.126138|    0.823840|    0.012029|
|         218|   -4.408300|   -7.129731|    0.823838|    0.012031|
|         219|   -4.422971|   -7.133144|    0.823837|    0.012033|
|         220|   -4.437712|   -7.136412|    0.823835|    0.012035|
|         221|   -4.450829|   -7.139563|    0.823833|    0.012037|
|         222|   -4.461871|   -7.142605|    0.823830|    0.012038|
|         223|   -4.471423|   -7.145527|    0.823827|    0.012040|
|         224|   -4.480327|   -7.148308|    0.823824|    0.012041|
|         225|   -4.489056|   -7.150926|    0.823821|    0.012042|
|         226|   -4.497574|   -7.153365|    0.823818|    0.012043|
|         227|   -4.505543|   -7.155615|    0.823814|    0.012044|
|         228|   -4.512592|   -7.157674|    0.823810|    0.012045|
|         229|   -4.518477|   -7.159549|    0.823806|    0.012046|
|         230|   -4.523138|   -7.161255|    0.823801|    0.012046|
|         231|   -4.526686|   -7.162810|    0.823797|    0.012046|
|         232|   -4.529395|   -7.164235|    0.823792|    0.012047|
|         233|   -4.531673|   -7.165545|    0.823787|    0.012047|
|         234|   -4.533994|   -7.166754|    0.823782|    0.012046|
|         235|   -4.536814|   -7.167871|    0.823777|    0.012046|
|         236|   -4.540484|   -7.168897|    0.823772|    0.012046|
|         237|   -4.545201|   -7.169826|    0.823767|    0.012045|
|         238|   -4.550995|   -7.170649|    0.823761|    0.012045|
|         239|   -4.557738|   -7.171345|    0.823756|    0.012044|
|         240|   -4.565180|   -7.171891|    0.823751|    0.012043|
|         241|   -4.572997|   -7.172266|    0.823746|    0.012042|
|         242|   -4.580856|   -7.172446|    0.823742|    0.012041|
|         243|   -4.588489|   -7.172406|    0.823737|    0.012040|
|         244|   -4.595748|   -7.172121|    0.823733|    0.012038|
|         245|   -4.602640|   -7.171567|    0.823728|    0.012037|
|         246|   -4.609306|   -7.170728|    0.823724|    0.012036|
|         247|   -4.615969|   -7.169594|    0.823721|    0.012034|
|         248|   -4.622867|   -7.168161|    0.823718|    0.012032|
|         249|   -4.630190|   -7.166429|    0.823715|    0.012031|
|         250|   -4.638034|   -7.164411|    0.823712|    0.012029|
|         251|   -4.646394|   -7.162128|    0.823710|    0.012028|
|         252|   -4.655176|   -7.159618|    0.823708|    0.012026|
|         253|   -4.664221|   -7.156924|    0.823707|    0.012024|
|         254|   -4.673348|   -7.154102|    0.823707|    0.012022|
|         255|   -4.682386|   -7.151218|    0.823707|    0.012021|
|         256|   -4.691209|   -7.148343|    0.823707|    0.012019|
|         257|   -4.699742|   -7.145550|    0.823708|    0.012017|
|         258|   -4.707968|   -7.142914|    0.823710|    0.012015|
|         259|   -4.715911|   -7.140510|    0.823712|    0.012014|
|         260|   -4.723615|   -7.138410|    0.823715|    0.012012|
|         261|   -4.731128|   -7.136685|    0.823718|    0.012011|
|         262|   -4.738485|   -7.135398|    0.823722|    0.012009|
|         263|   -4.745700|   -7.134606|    0.823726|    0.012007|
|         264|   -4.752765|   -7.134362|    0.823731|    0.012006|
|         265|   -4.759655|   -7.134703|    0.823736|    0.012005|
|         266|   -4.766332|   -7.135656|    0.823742|    0.012003|
|         267|   -4.772755|   -7.137237|    0.823748|    0.012002|
|         268|   -4.778886|   -7.139449|    0.823755|    0.012001|
|         269|   -4.784688|   -7.142280|    0.823761|    0.011999|
|         270|   -4.790133|   -7.145701|    0.823769|    0.011998|
|         271|   -4.795195|   -7.149668|    0.823776|    0.011997|
|         272|   -4.799854|   -7.154111|    0.823783|    0.011996|
|         273|   -4.804092|   -7.158945|    0.823791|    0.011995|
|         274|   -4.807894|   -7.164077|    0.823798|    0.011994|
|         275|   -4.811248|   -7.169394|    0.823805|    0.011993|
|         276|   -4.814146|   -7.174763|    0.823813|    0.011992|
|         277|   -4.816586|   -7.180043|    0.823820|    0.011992|
|         278|   -4.818574|   -7.185082|    0.823827|    0.011991|
|         279|   -4.820122|   -7.189732|    0.823833|    0.011990|
|         280|   -4.821252|   -7.193852|    0.823840|    0.011990|
|         281|   -4.821992|   -7.197321|    0.823846|    0.011989|
|         282|   -4.822376|   -7.200040|    0.823852|    0.011989|
|         283|   -4.822445|   -7.201948|    0.823857|    0.011988|
|         284|   -4.822241|   -7.203020|    0.823862|    0.011988|
|         285|   -4.821810|   -7.203277|    0.823867|    0.011988|
|         286|   -4.821198|   -7.202779|    0.823871|    0.011988|
|         287|   -4.820451|   -7.201619|    0.823875|    0.011988|
|         288|   -4.819611|   -7.199923|    0.823878|    0.011988|
|         289|   -4.818721|   -7.197833|    0.823881|    0.011988|
|         290|   -4.817818|   -7.195490|    0.823884|    0.011988|
|         291|   -4.816936|   -7.193054|    0.823886|    0.011988|
|         292|   -4.816105|   -7.190676|    0.823887|    0.011988|
|         293|   -4.815351|   -7.188489|    0.823889|    0.011988|
|         294|   -4.814695|   -7.186616|    0.823890|    0.011989|
|         295|   -4.814156|   -7.185158|    0.823890|    0.011989|
|         296|   -4.813747|   -7.184201|    0.823891|    0.011990|
|         297|   -4.813480|   -7.183808|    0.823891|    0.011990|
|         298|   -4.813364|   -7.184029|    0.823890|    0.011991|
|         299|   -4.813405|   -7.184890|    0.823890|    0.011991|
|         300|   -4.813607|   -7.186404|    0.823889|    0.011992|
|         301|   -4.813975|   -7.188568|    0.823888|    0.012001|
+-----------------------------------------------------------------------+
|Fixed CL Mode                           |Value                         |
+-----------------------------------------------------------------------+
|Current CL                              |0.823888                      |
|Target CL                               |0.824                         |
|Previous AOA                            |2.78056                       |
|Changed AoA by                          |0.000554054                   |
+-----------------------------------------------------------------------+
+----------------------------------------------------------------+
|  Inner_Iter|    rms[Rho]|     rms[nu]|          CL|          CD|
+----------------------------------------------------------------+
|         302|   -3.449384|   -7.152284|    0.823887|    0.012002|
|         303|   -3.831391|   -7.174294|    0.823886|    0.012003|
|         304|   -4.068833|   -7.184118|    0.823884|    0.012004|
|         305|   -4.143389|   -7.191789|    0.823882|    0.012004|
|         306|   -4.193788|   -7.198874|    0.823881|    0.012005|
|         307|   -4.258504|   -7.205725|    0.823879|    0.012006|
|         308|   -4.336667|   -7.212443|    0.823877|    0.012008|
|         309|   -4.415477|   -7.219086|    0.823875|    0.012009|
|         310|   -4.480745|   -7.225673|    0.823873|    0.012010|
|         311|   -4.527252|   -7.232180|    0.823871|    0.012011|
|         312|   -4.557952|   -7.238569|    0.823869|    0.012012|
|         313|   -4.576597|   -7.244829|    0.823867|    0.012013|
|         314|   -4.586238|   -7.250967|    0.823865|    0.012014|
|         315|   -4.591067|   -7.256977|    0.823863|    0.012015|
|         316|   -4.595873|   -7.262822|    0.823861|    0.012016|
|         317|   -4.603987|   -7.268450|    0.823859|    0.012018|
|         318|   -4.616259|   -7.273829|    0.823857|    0.012019|
|         319|   -4.631463|   -7.278950|    0.823855|    0.012020|
|         320|   -4.647507|   -7.283829|    0.823854|    0.012021|
|         321|   -4.662768|   -7.288487|    0.823852|    0.012022|
|         322|   -4.676837|   -7.292942|    0.823850|    0.012023|
|         323|   -4.690307|   -7.297200|    0.823849|    0.012024|
|         324|   -4.703980|   -7.301281|    0.823847|    0.012025|
|         325|   -4.718217|   -7.305204|    0.823846|    0.012026|
|         326|   -4.732765|   -7.308997|    0.823844|    0.012027|
|         327|   -4.746979|   -7.312702|    0.823843|    0.012028|
|         328|   -4.760144|   -7.316362|    0.823842|    0.012028|
|         329|   -4.771707|   -7.320032|    0.823841|    0.012029|
|         330|   -4.781387|   -7.323770|    0.823840|    0.012030|
|         331|   -4.789193|   -7.327637|    0.823839|    0.012031|
|         332|   -4.795419|   -7.331683|    0.823838|    0.012031|
|         333|   -4.800583|   -7.335954|    0.823837|    0.012032|
|         334|   -4.805320|   -7.340481|    0.823836|    0.012032|
|         335|   -4.810231|   -7.345276|    0.823836|    0.012033|
|         336|   -4.815754|   -7.350341|    0.823835|    0.012033|
|         337|   -4.822090|   -7.355666|    0.823834|    0.012033|
|         338|   -4.829177|   -7.361238|    0.823834|    0.012034|
|         339|   -4.836720|   -7.367034|    0.823833|    0.012034|
|         340|   -4.844250|   -7.373026|    0.823833|    0.012034|
|         341|   -4.851216|   -7.379185|    0.823832|    0.012034|
|         342|   -4.857105|   -7.385475|    0.823832|    0.012034|
|         343|   -4.861562|   -7.391864|    0.823832|    0.012034|
|         344|   -4.864487|   -7.398331|    0.823831|    0.012034|
|         345|   -4.866045|   -7.404848|    0.823831|    0.012034|
|         346|   -4.866608|   -7.411378|    0.823831|    0.012034|
|         347|   -4.866636|   -7.417872|    0.823830|    0.012033|
|         348|   -4.866557|   -7.424270|    0.823830|    0.012033|
|         349|   -4.866682|   -7.430496|    0.823830|    0.012033|
|         350|   -4.867168|   -7.436466|    0.823830|    0.012032|
|         351|   -4.868026|   -7.442093|    0.823831|    0.012032|
|         352|   -4.869157|   -7.447279|    0.823831|    0.012031|
|         353|   -4.870411|   -7.451929|    0.823831|    0.012031|
|         354|   -4.871633|   -7.455957|    0.823832|    0.012030|
|         355|   -4.872710|   -7.459279|    0.823832|    0.012029|
|         356|   -4.873589|   -7.461826|    0.823833|    0.012029|
|         357|   -4.874283|   -7.463544|    0.823834|    0.012028|
|         358|   -4.874860|   -7.464406|    0.823835|    0.012027|
|         359|   -4.875416|   -7.464410|    0.823837|    0.012026|
|         360|   -4.876058|   -7.463580|    0.823838|    0.012026|
|         361|   -4.876881|   -7.461972|    0.823840|    0.012025|
|         362|   -4.877962|   -7.459666|    0.823842|    0.012024|
|         363|   -4.879350|   -7.456763|    0.823844|    0.012023|
|         364|   -4.881077|   -7.453384|    0.823846|    0.012022|
|         365|   -4.883155|   -7.449660|    0.823848|    0.012022|
|         366|   -4.885590|   -7.445730|    0.823851|    0.012021|
|         367|   -4.888384|   -7.441735|    0.823854|    0.012020|
|         368|   -4.891539|   -7.437809|    0.823857|    0.012019|
|         369|   -4.895057|   -7.434082|    0.823860|    0.012018|
|         370|   -4.898943|   -7.430670|    0.823863|    0.012018|
|         371|   -4.903202|   -7.427678|    0.823866|    0.012017|
|         372|   -4.907837|   -7.425198|    0.823869|    0.012016|
|         373|   -4.912846|   -7.423299|    0.823873|    0.012016|
|         374|   -4.918226|   -7.422038|    0.823876|    0.012015|
|         375|   -4.923969|   -7.421452|    0.823880|    0.012014|
|         376|   -4.930059|   -7.421559|    0.823883|    0.012014|
|         377|   -4.936479|   -7.422359|    0.823887|    0.012013|
|         378|   -4.943207|   -7.423834|    0.823890|    0.012013|
|         379|   -4.950216|   -7.425950|    0.823894|    0.012012|
|         380|   -4.957475|   -7.428653|    0.823897|    0.012012|
|         381|   -4.964951|   -7.431865|    0.823900|    0.012011|
|         382|   -4.972606|   -7.435491|    0.823903|    0.012011|
|         383|   -4.980398|   -7.439419|    0.823906|    0.012010|
|         384|   -4.988282|   -7.443527|    0.823909|    0.012010|
|         385|   -4.996209|   -7.447684|    0.823912|    0.012010|
|         386|   -5.004129|   -7.451748|    0.823915|    0.012010|
|         387|   -5.011986|   -7.455583|    0.823917|    0.012009|
|         388|   -5.019724|   -7.459057|    0.823920|    0.012009|
|         389|   -5.027288|   -7.462057|    0.823922|    0.012009|
|         390|   -5.034618|   -7.464499|    0.823924|    0.012009|
|         391|   -5.041660|   -7.466321|    0.823926|    0.012009|
|         392|   -5.048358|   -7.467491|    0.823927|    0.012009|
|         393|   -5.054661|   -7.468014|    0.823929|    0.012009|
|         394|   -5.060521|   -7.467930|    0.823931|    0.012010|
|         395|   -5.065898|   -7.467308|    0.823932|    0.012010|
|         396|   -5.070755|   -7.466248|    0.823933|    0.012010|
|         397|   -5.075064|   -7.464866|    0.823934|    0.012010|
|         398|   -5.078805|   -7.463288|    0.823935|    0.012011|
|         399|   -5.081966|   -7.461643|    0.823936|    0.012011|
|         400|   -5.084544|   -7.460057|    0.823937|    0.012012|
|         401|   -5.086545|   -7.458649|    0.823937|    0.012017|
+-----------------------------------------------------------------------+
|Fixed CL Mode                           |Value                         |
+-----------------------------------------------------------------------+
|Current CL                              |0.823937                      |
|Target CL                               |0.824                         |
|Previous AOA                            |2.78112                       |
|Changed AoA by                          |0.000316425                   |
+-----------------------------------------------------------------------+
+----------------------------------------------------------------+
|  Inner_Iter|    rms[Rho]|     rms[nu]|          CL|          CD|
+----------------------------------------------------------------+
|         402|   -3.692963|   -7.416037|    0.823938|    0.012017|
|         403|   -4.076213|   -7.435901|    0.823938|    0.012018|
|         404|   -4.315793|   -7.442039|    0.823939|    0.012018|
|         405|   -4.390616|   -7.445764|    0.823939|    0.012019|
|         406|   -4.440898|   -7.448919|    0.823939|    0.012019|
|         407|   -4.505944|   -7.451965|    0.823940|    0.012020|
|         408|   -4.584947|   -7.455083|    0.823940|    0.012020|
|         409|   -4.664805|   -7.458392|    0.823940|    0.012021|
|         410|   -4.730671|   -7.461962|    0.823940|    0.012022|
|         411|   -4.776816|   -7.465816|    0.823940|    0.012022|
|         412|   -4.806238|   -7.469956|    0.823941|    0.012023|
|         413|   -4.823027|   -7.474400|    0.823941|    0.012024|
|         414|   -4.830581|   -7.479169|    0.823941|    0.012024|
|         415|   -4.833320|   -7.484252|    0.823941|    0.012025|
|         416|   -4.836055|   -7.489595|    0.823941|    0.012026|
|         417|   -4.841986|   -7.495112|    0.823942|    0.012026|
|         418|   -4.851793|   -7.500711|    0.823942|    0.012027|
|         419|   -4.864141|   -7.506311|    0.823942|    0.012027|
|         420|   -4.876946|   -7.511833|    0.823943|    0.012028|
|         421|   -4.888683|   -7.517209|    0.823943|    0.012029|
|         422|   -4.899048|   -7.522349|    0.823944|    0.012029|
|         423|   -4.908672|   -7.527155|    0.823945|    0.012030|
|         424|   -4.918335|   -7.531539|    0.823945|    0.012030|
|         425|   -4.928375|   -7.535422|    0.823946|    0.012031|
|         426|   -4.938583|   -7.538751|    0.823947|    0.012031|
|         427|   -4.948429|   -7.541501|    0.823948|    0.012032|
|         428|   -4.957364|   -7.543673|    0.823949|    0.012032|
|         429|   -4.965019|   -7.545290|    0.823950|    0.012032|
|         430|   -4.971268|   -7.546398|    0.823951|    0.012033|
|         431|   -4.976225|   -7.547065|    0.823952|    0.012033|
|         432|   -4.980220|   -7.547358|    0.823953|    0.012033|
|         433|   -4.983739|   -7.547356|    0.823954|    0.012034|
|         434|   -4.987333|   -7.547138|    0.823956|    0.012034|
|         435|   -4.991508|   -7.546775|    0.823957|    0.012034|
|         436|   -4.996634|   -7.546334|    0.823958|    0.012034|
|         437|   -5.002889|   -7.545873|    0.823960|    0.012034|
|         438|   -5.010247|   -7.545443|    0.823961|    0.012034|
|         439|   -5.018500|   -7.545089|    0.823962|    0.012034|
|         440|   -5.027301|   -7.544855|    0.823964|    0.012034|
|         441|   -5.036226|   -7.544779|    0.823965|    0.012034|
|         442|   -5.044854|   -7.544900|    0.823966|    0.012034|
|         443|   -5.052862|   -7.545249|    0.823968|    0.012034|
|         444|   -5.060091|   -7.545859|    0.823969|    0.012034|
|         445|   -5.066579|   -7.546753|    0.823970|    0.012034|
|         446|   -5.072531|   -7.547953|    0.823972|    0.012034|
|         447|   -5.078245|   -7.549471|    0.823973|    0.012033|
|         448|   -5.084027|   -7.551309|    0.823974|    0.012033|
|         449|   -5.090107|   -7.553460|    0.823975|    0.012033|
|         450|   -5.096596|   -7.555902|    0.823977|    0.012032|
|         451|   -5.103476|   -7.558608|    0.823978|    0.012032|
|         452|   -5.110619|   -7.561541|    0.823979|    0.012032|
|         453|   -5.117823|   -7.564647|    0.823980|    0.012031|
|         454|   -5.124863|   -7.567855|    0.823981|    0.012031|
|         455|   -5.131533|   -7.571089|    0.823983|    0.012030|
|         456|   -5.137681|   -7.574277|    0.823984|    0.012029|
|         457|   -5.143224|   -7.577337|    0.823985|    0.012029|
|         458|   -5.148146|   -7.580185|    0.823987|    0.012028|
|         459|   -5.152479|   -7.582738|    0.823988|    0.012027|
|         460|   -5.156282|   -7.584917|    0.823990|    0.012027|
|         461|   -5.159620|   -7.586657|    0.823991|    0.012026|
|         462|   -5.162546|   -7.587910|    0.823993|    0.012025|
|         463|   -5.165099|   -7.588647|    0.823995|    0.012025|
|         464|   -5.167297|   -7.588867|    0.823996|    0.012024|
|         465|   -5.169152|   -7.588592|    0.823998|    0.012023|
|         466|   -5.170670|   -7.587869|    0.824000|    0.012022|
|         467|   -5.171861|   -7.586766|    0.824002|    0.012022|
|         468|   -5.172743|   -7.585368|    0.824004|    0.012021|
|         469|   -5.173343|   -7.583771|    0.824006|    0.012020|
|         470|   -5.173693|   -7.582082|    0.824008|    0.012019|
|         471|   -5.173833|   -7.580405|    0.824010|    0.012019|
|         472|   -5.173804|   -7.578846|    0.824013|    0.012018|
|         473|   -5.173648|   -7.577501|    0.824015|    0.012017|
|         474|   -5.173405|   -7.576453|    0.824017|    0.012016|
|         475|   -5.173112|   -7.575775|    0.824019|    0.012016|
|         476|   -5.172807|   -7.575523|    0.824022|    0.012015|
|         477|   -5.172524|   -7.575740|    0.824024|    0.012014|
|         478|   -5.172294|   -7.576451|    0.824026|    0.012014|
|         479|   -5.172148|   -7.577664|    0.824028|    0.012013|
|         480|   -5.172116|   -7.579368|    0.824030|    0.012012|
|         481|   -5.172226|   -7.581536|    0.824032|    0.012012|
|         482|   -5.172503|   -7.584125|    0.824034|    0.012011|
|         483|   -5.172972|   -7.587079|    0.824036|    0.012011|
|         484|   -5.173654|   -7.590330|    0.824038|    0.012010|
|         485|   -5.174570|   -7.593803|    0.824039|    0.012010|
|         486|   -5.175738|   -7.597414|    0.824041|    0.012010|
|         487|   -5.177173|   -7.601075|    0.824042|    0.012009|
|         488|   -5.178888|   -7.604700|    0.824044|    0.012009|
|         489|   -5.180895|   -7.608209|    0.824045|    0.012009|
|         490|   -5.183202|   -7.611528|    0.824046|    0.012008|
|         491|   -5.185815|   -7.614599|    0.824047|    0.012008|
|         492|   -5.188740|   -7.617376|    0.824048|    0.012008|
|         493|   -5.191976|   -7.619836|    0.824049|    0.012008|
|         494|   -5.195523|   -7.621973|    0.824050|    0.012008|
|         495|   -5.199377|   -7.623799|    0.824051|    0.012008|
|         496|   -5.203529|   -7.625346|    0.824051|    0.012008|
|         497|   -5.207970|   -7.626659|    0.824052|    0.012008|
|         498|   -5.212684|   -7.627793|    0.824052|    0.012009|
|         499|   -5.217653|   -7.628813|    0.824053|    0.012009|
|         500|   -5.222856|   -7.629786|    0.824053|    0.012009|
|         501|   -5.228265|   -7.630778|    0.824053|    0.012005|
+-----------------------------------------------------------------------+
|Fixed CL Mode                           |Value                         |
+-----------------------------------------------------------------------+
|Current CL                              |0.824053                      |
|Target CL                               |0.824                         |
|Previous AOA                            |2.78143                       |
|Changed AoA by                          |-0.000264676                  |
+-----------------------------------------------------------------------+
+----------------------------------------------------------------+
|  Inner_Iter|    rms[Rho]|     rms[nu]|          CL|          CD|
+----------------------------------------------------------------+
|         502|   -3.770255|   -7.568584|    0.824054|    0.012006|
|         503|   -4.153109|   -7.599215|    0.824054|    0.012006|
|         504|   -4.394306|   -7.609880|    0.824054|    0.012007|
|         505|   -4.472563|   -7.616490|    0.824054|    0.012007|
|         506|   -4.525987|   -7.621763|    0.824054|    0.012008|
|         507|   -4.594415|   -7.626422|    0.824054|    0.012008|
|         508|   -4.677707|   -7.630746|    0.824054|    0.012009|
|         509|   -4.762715|   -7.634903|    0.824054|    0.012009|
|         510|   -4.833460|   -7.638977|    0.824054|    0.012010|
|         511|   -4.883050|   -7.642969|    0.824055|    0.012011|
|         512|   -4.914383|   -7.646867|    0.824055|    0.012011|
|         513|   -4.931987|   -7.650704|    0.824055|    0.012012|
|         514|   -4.939802|   -7.654538|    0.824055|    0.012013|
|         515|   -4.942929|   -7.658404|    0.824055|    0.012013|
|         516|   -4.946834|   -7.662280|    0.824055|    0.012014|
|         517|   -4.955077|   -7.666113|    0.824056|    0.012015|
|         518|   -4.968328|   -7.669858|    0.824056|    0.012016|
|         519|   -4.984866|   -7.673502|    0.824056|    0.012017|
|         520|   -5.001934|   -7.677051|    0.824057|    0.012017|
|         521|   -5.017314|   -7.680517|    0.824057|    0.012018|
|         522|   -5.030323|   -7.683903|    0.824058|    0.012019|
|         523|   -5.041639|   -7.687197|    0.824058|    0.012020|
|         524|   -5.052342|   -7.690384|    0.824059|    0.012021|
|         525|   -5.063082|   -7.693456|    0.824059|    0.012021|
|         526|   -5.073861|   -7.696410|    0.824060|    0.012022|
|         527|   -5.084251|   -7.699250|    0.824061|    0.012023|
|         528|   -5.093719|   -7.701980|    0.824061|    0.012024|
|         529|   -5.101846|   -7.704604|    0.824062|    0.012024|
|         530|   -5.108398|   -7.707119|    0.824063|    0.012025|
|         531|   -5.113355|   -7.709517|    0.824064|    0.012026|
|         532|   -5.116928|   -7.711783|    0.824065|    0.012026|
|         533|   -5.119544|   -7.713895|    0.824065|    0.012027|
|         534|   -5.121768|   -7.715828|    0.824066|    0.012028|
|         535|   -5.124177|   -7.717548|    0.824067|    0.012028|
|         536|   -5.127239|   -7.719023|    0.824068|    0.012029|
|         537|   -5.131232|   -7.720221|    0.824068|    0.012029|
|         538|   -5.136217|   -7.721119|    0.824069|    0.012030|
|         539|   -5.142050|   -7.721701|    0.824070|    0.012030|
|         540|   -5.148432|   -7.721962|    0.824070|    0.012031|
|         541|   -5.154969|   -7.721908|    0.824070|    0.012031|
|         542|   -5.161268|   -7.721558|    0.824071|    0.012031|
|         543|   -5.167031|   -7.720944|    0.824071|    0.012031|
|         544|   -5.172135|   -7.720109|    0.824071|    0.012032|
|         545|   -5.176664|   -7.719114|    0.824071|    0.012032|
|         546|   -5.180873|   -7.718018|    0.824071|    0.012032|
|         547|   -5.185110|   -7.716890|    0.824071|    0.012032|
|         548|   -5.189724|   -7.715802|    0.824071|    0.012032|
|         549|   -5.194981|   -7.714826|    0.824070|    0.012032|
|         550|   -5.201025|   -7.714031|    0.824070|    0.012032|
|         551|   -5.207863|   -7.713487|    0.824069|    0.012032|
|         552|   -5.215391|   -7.713260|    0.824068|    0.012031|
|         553|   -5.223431|   -7.713414|    0.824067|    0.012031|
|         554|   -5.231777|   -7.714003|    0.824066|    0.012031|
|         555|   -5.240238|   -7.715075|    0.824065|    0.012030|
|         556|   -5.248675|   -7.716675|    0.824064|    0.012030|
|         557|   -5.257010|   -7.718841|    0.824062|    0.012029|
|         558|   -5.265229|   -7.721603|    0.824060|    0.012029|
|         559|   -5.273364|   -7.724982|    0.824059|    0.012028|
|         560|   -5.281469|   -7.728992|    0.824057|    0.012028|
|         561|   -5.289598|   -7.733634|    0.824055|    0.012027|
|         562|   -5.297784|   -7.738897|    0.824053|    0.012026|
|         563|   -5.306036|   -7.744754|    0.824051|    0.012026|
|         564|   -5.314330|   -7.751162|    0.824048|    0.012025|
|         565|   -5.322621|   -7.758059|    0.824046|    0.012024|
|         566|   -5.330844|   -7.765362|    0.824044|    0.012023|
|         567|   -5.338929|   -7.772965|    0.824042|    0.012022|
|         568|   -5.346805|   -7.780738|    0.824040|    0.012021|
|         569|   -5.354401|   -7.788530|    0.824037|    0.012020|
|         570|   -5.361656|   -7.796166|    0.824035|    0.012019|
|         571|   -5.368513|   -7.803455|    0.824033|    0.012018|
|         572|   -5.374917|   -7.810193|    0.824031|    0.012017|
|         573|   -5.380822|   -7.816179|    0.824029|    0.012016|
|         574|   -5.386184|   -7.821219|    0.824028|    0.012015|
|         575|   -5.390964|   -7.825147|    0.824026|    0.012014|
|         576|   -5.395135|   -7.827838|    0.824025|    0.012014|
|         577|   -5.398677|   -7.829216|    0.824024|    0.012013|
|         578|   -5.401586|   -7.829267|    0.824023|    0.012012|
|         579|   -5.403869|   -7.828038|    0.824022|    0.012011|
|         580|   -5.405549|   -7.825639|    0.824021|    0.012010|
|         581|   -5.406665|   -7.822227|    0.824021|    0.012009|
|         582|   -5.407263|   -7.817997|    0.824021|    0.012008|
|         583|   -5.407405|   -7.813166|    0.824021|    0.012007|
|         584|   -5.407156|   -7.807957|    0.824021|    0.012006|
|         585|   -5.406589|   -7.802595|    0.824022|    0.012005|
|         586|   -5.405778|   -7.797289|    0.824022|    0.012005|
|         587|   -5.404800|   -7.792229|    0.824023|    0.012004|
|         588|   -5.403729|   -7.787581|    0.824024|    0.012003|
|         589|   -5.402636|   -7.783487|    0.824025|    0.012003|
|         590|   -5.401590|   -7.780064|    0.824027|    0.012002|
|         591|   -5.400654|   -7.777403|    0.824029|    0.012001|
|         592|   -5.399885|   -7.775573|    0.824030|    0.012001|
|         593|   -5.399336|   -7.774618|    0.824032|    0.012000|
|         594|   -5.399052|   -7.774568|    0.824034|    0.012000|
|         595|   -5.399072|   -7.775431|    0.824036|    0.011999|
|         596|   -5.399432|   -7.777200|    0.824039|    0.011999|
|         597|   -5.400159|   -7.779851|    0.824041|    0.011999|
|         598|   -5.401276|   -7.783345|    0.824044|    0.011998|
|         599|   -5.402800|   -7.787631|    0.824046|    0.011998|
|         600|   -5.404744|   -7.792641|    0.824049|    0.011998|
|         601|   -5.407116|   -7.798297|    0.824051|    0.011994|
+-----------------------------------------------------------------------+
|Fixed CL Mode                           |Value                         |
+-----------------------------------------------------------------------+
|Current CL                              |0.824051                      |
|Target CL                               |0.824                         |
|Previous AOA                            |2.78117                       |
|Changed AoA by                          |-0.000243124                  |
+-----------------------------------------------------------------------+
+----------------------------------------------------------------+
|  Inner_Iter|    rms[Rho]|     rms[nu]|          CL|          CD|
+----------------------------------------------------------------+
|         602|   -3.807284|   -7.697298|    0.824054|    0.011994|
|         603|   -4.189911|   -7.749681|    0.824057|    0.011994|
|         604|   -4.429422|   -7.771992|    0.824059|    0.011994|
|         605|   -4.506305|   -7.787807|    0.824062|    0.011994|
|         606|   -4.559361|   -7.801189|    0.824065|    0.011994|
|         607|   -4.628041|   -7.813082|    0.824067|    0.011994|
|         608|   -4.712422|   -7.823794|    0.824070|    0.011995|
|         609|   -4.800049|   -7.833511|    0.824073|    0.011995|
|         610|   -4.875416|   -7.842319|    0.824075|    0.011995|
|         611|   -4.931064|   -7.850162|    0.824078|    0.011995|
|         612|   -4.968669|   -7.856972|    0.824080|    0.011996|
|         613|   -4.991609|   -7.862807|    0.824083|    0.011996|
|         614|   -5.003122|   -7.867813|    0.824085|    0.011996|
|         615|   -5.008448|   -7.872101|    0.824087|    0.011997|
|         616|   -5.013825|   -7.875687|    0.824089|    0.011997|
|         617|   -5.023626|   -7.878528|    0.824091|    0.011998|
|         618|   -5.039029|   -7.880616|    0.824093|    0.011998|
|         619|   -5.058498|   -7.882012|    0.824095|    0.011999|
|         620|   -5.079217|   -7.882820|    0.824097|    0.011999|
|         621|   -5.098809|   -7.883146|    0.824099|    0.012000|
|         622|   -5.116504|   -7.883052|    0.824100|    0.012001|
|         623|   -5.133027|   -7.882551|    0.824102|    0.012001|
|         624|   -5.149540|   -7.881648|    0.824103|    0.012002|
|         625|   -5.166656|   -7.880355|    0.824104|    0.012003|
|         626|   -5.184125|   -7.878696|    0.824106|    0.012003|
|         627|   -5.201083|   -7.876719|    0.824107|    0.012004|
|         628|   -5.216499|   -7.874484|    0.824107|    0.012005|
|         629|   -5.229530|   -7.872058|    0.824108|    0.012005|
|         630|   -5.239704|   -7.869509|    0.824109|    0.012006|
|         631|   -5.246996|   -7.866900|    0.824109|    0.012007|
|         632|   -5.251831|   -7.864286|    0.824110|    0.012008|
|         633|   -5.255009|   -7.861708|    0.824110|    0.012008|
|         634|   -5.257521|   -7.859202|    0.824110|    0.012009|
|         635|   -5.260313|   -7.856785|    0.824110|    0.012010|
|         636|   -5.264092|   -7.854470|    0.824110|    0.012010|
|         637|   -5.269227|   -7.852264|    0.824109|    0.012011|
|         638|   -5.275723|   -7.850174|    0.824109|    0.012012|
|         639|   -5.283264|   -7.848209|    0.824109|    0.012012|
|         640|   -5.291288|   -7.846377|    0.824108|    0.012013|
|         641|   -5.299095|   -7.844694|    0.824107|    0.012014|
|         642|   -5.306009|   -7.843176|    0.824106|    0.012014|
|         643|   -5.311548|   -7.841847|    0.824105|    0.012015|
|         644|   -5.315562|   -7.840729|    0.824104|    0.012016|
|         645|   -5.318275|   -7.839851|    0.824103|    0.012016|
|         646|   -5.320200|   -7.839237|    0.824102|    0.012017|
|         647|   -5.321983|   -7.838909|    0.824100|    0.012017|
|         648|   -5.324229|   -7.838884|    0.824099|    0.012018|
|         649|   -5.327384|   -7.839173|    0.824097|    0.012018|
|         650|   -5.331677|   -7.839787|    0.824096|    0.012019|
|         651|   -5.337123|   -7.840727|    0.824094|    0.012019|
|         652|   -5.343566|   -7.841993|    0.824092|    0.012019|
|         653|   -5.350749|   -7.843586|    0.824090|    0.012020|
|         654|   -5.358381|   -7.845502|    0.824088|    0.012020|
|         655|   -5.366210|   -7.847731|    0.824086|    0.012020|
|         656|   -5.374061|   -7.850261|    0.824084|    0.012020|
|         657|   -5.381865|   -7.853080|    0.824082|    0.012020|
|         658|   -5.389648|   -7.856183|    0.824080|    0.012021|
|         659|   -5.397506|   -7.859558|    0.824077|    0.012021|
|         660|   -5.405566|   -7.863197|    0.824075|    0.012021|
|         661|   -5.413955|   -7.867094|    0.824072|    0.012021|
|         662|   -5.422772|   -7.871244|    0.824070|    0.012021|
|         663|   -5.432075|   -7.875643|    0.824067|    0.012021|
|         664|   -5.441880|   -7.880286|    0.824065|    0.012021|
|         665|   -5.452166|   -7.885170|    0.824062|    0.012021|
|         666|   -5.462890|   -7.890291|    0.824060|    0.012020|
|         667|   -5.473993|   -7.895642|    0.824057|    0.012020|
|         668|   -5.485413|   -7.901215|    0.824054|    0.012020|
|         669|   -5.497087|   -7.907000|    0.824052|    0.012020|
|         670|   -5.508951|   -7.912979|    0.824049|    0.012019|
|         671|   -5.520938|   -7.919131|    0.824047|    0.012019|
|         672|   -5.532975|   -7.925425|    0.824044|    0.012019|
|         673|   -5.544977|   -7.931817|    0.824042|    0.012018|
|         674|   -5.556846|   -7.938254|    0.824040|    0.012018|
|         675|   -5.568469|   -7.944669|    0.824037|    0.012018|
|         676|   -5.579720|   -7.950984|    0.824035|    0.012017|
|         677|   -5.590465|   -7.957101|    0.824033|    0.012017|
|         678|   -5.600570|   -7.962916|    0.824031|    0.012016|
|         679|   -5.609903|   -7.968311|    0.824030|    0.012016|
|         680|   -5.618348|   -7.973167|    0.824028|    0.012015|
|         681|   -5.625811|   -7.977366|    0.824027|    0.012015|
|         682|   -5.632221|   -7.980800|    0.824025|    0.012014|
|         683|   -5.637542|   -7.983383|    0.824024|    0.012014|
|         684|   -5.641771|   -7.985054|    0.824023|    0.012013|
|         685|   -5.644939|   -7.985787|    0.824023|    0.012013|
|         686|   -5.647106|   -7.985596|    0.824022|    0.012012|
|         687|   -5.648362|   -7.984535|    0.824022|    0.012011|
|         688|   -5.648815|   -7.982698|    0.824021|    0.012011|
|         689|   -5.648589|   -7.980212|    0.824021|    0.012010|
|         690|   -5.647815|   -7.977231|    0.824021|    0.012010|
|         691|   -5.646624|   -7.973926|    0.824022|    0.012009|
|         692|   -5.645146|   -7.970479|    0.824022|    0.012008|
|         693|   -5.643500|   -7.967071|    0.824023|    0.012008|
|         694|   -5.641795|   -7.963878|    0.824023|    0.012007|
|         695|   -5.640131|   -7.961066|    0.824024|    0.012007|
|         696|   -5.638591|   -7.958781|    0.824025|    0.012006|
|         697|   -5.637247|   -7.957155|    0.824026|    0.012006|
|         698|   -5.636158|   -7.956300|    0.824027|    0.012005|
|         699|   -5.635372|   -7.956307|    0.824029|    0.012005|
|         700|   -5.634925|   -7.957247|    0.824030|    0.012004|
|         701|   -5.634847|   -7.959167|    0.824032|    0.012002|
+-----------------------------------------------------------------------+
|Fixed CL Mode                           |Value                         |
+-----------------------------------------------------------------------+
|Current CL                              |0.824032                      |
|Target CL                               |0.824                         |
|Previous AOA                            |2.78093                       |
|Changed AoA by                          |-0.000150087                  |
+-----------------------------------------------------------------------+
+----------------------------------------------------------------+
|  Inner_Iter|    rms[Rho]|     rms[nu]|          CL|          CD|
+----------------------------------------------------------------+
|         702|   -4.016775|   -7.872514|    0.824033|    0.012001|
|         703|   -4.398538|   -7.915565|    0.824035|    0.012001|
|         704|   -4.634923|   -7.933471|    0.824036|    0.012000|
|         705|   -4.709772|   -7.946660|    0.824038|    0.012000|
|         706|   -4.762035|   -7.958580|    0.824040|    0.011999|
|         707|   -4.830159|   -7.970052|    0.824042|    0.011999|
|         708|   -4.914098|   -7.981348|    0.824044|    0.011999|
|         709|   -5.001884|   -7.992601|    0.824045|    0.011999|
|         710|   -5.078722|   -8.003814|    0.824047|    0.011998|
|         711|   -5.137236|   -8.014820|    0.824049|    0.011998|
|         712|   -5.178369|   -8.025382|    0.824051|    0.011998|
|         713|   -5.204570|   -8.035309|    0.824053|    0.011998|
|         714|   -5.218381|   -8.044461|    0.824055|    0.011998|
|         715|   -5.224870|   -8.052653|    0.824057|    0.011997|
|         716|   -5.230561|   -8.059634|    0.824058|    0.011997|
|         717|   -5.240220|   -8.065132|    0.824060|    0.011997|
|         718|   -5.255307|   -8.068968|    0.824062|    0.011997|
|         719|   -5.274450|   -8.071097|    0.824063|    0.011997|
|         720|   -5.294944|   -8.071595|    0.824065|    0.011997|
|         721|   -5.314503|   -8.070606|    0.824066|    0.011997|
|         722|   -5.332415|   -8.068294|    0.824068|    0.011998|
|         723|   -5.349408|   -8.064827|    0.824069|    0.011998|
|         724|   -5.366579|   -8.060385|    0.824070|    0.011998|
|         725|   -5.384420|   -8.055161|    0.824071|    0.011998|
|         726|   -5.402516|   -8.049365|    0.824073|    0.011998|
|         727|   -5.419836|   -8.043211|    0.824074|    0.011999|
|         728|   -5.435228|   -8.036900|    0.824074|    0.011999|
|         729|   -5.447812|   -8.030619|    0.824075|    0.011999|
|         730|   -5.457189|   -8.024522|    0.824076|    0.011999|
|         731|   -5.463476|   -8.018732|    0.824077|    0.012000|
|         732|   -5.467267|   -8.013336|    0.824077|    0.012000|
|         733|   -5.469494|   -8.008392|    0.824078|    0.012000|
|         734|   -5.471216|   -8.003924|    0.824078|    0.012001|
|         735|   -5.473378|   -7.999925|    0.824078|    0.012001|
|         736|   -5.476636|   -7.996372|    0.824079|    0.012001|
|         737|   -5.481277|   -7.993226|    0.824079|    0.012002|
|         738|   -5.487218|   -7.990435|    0.824079|    0.012002|
|         739|   -5.494057|   -7.987941|    0.824079|    0.012003|
|         740|   -5.501161|   -7.985688|    0.824079|    0.012003|
|         741|   -5.507793|   -7.983625|    0.824079|    0.012004|
|         742|   -5.513272|   -7.981709|    0.824078|    0.012004|
|         743|   -5.517154|   -7.979901|    0.824078|    0.012004|
|         744|   -5.519351|   -7.978167|    0.824078|    0.012005|
|         745|   -5.520150|   -7.976485|    0.824077|    0.012005|
|         746|   -5.520111|   -7.974836|    0.824077|    0.012006|
|         747|   -5.519896|   -7.973208|    0.824076|    0.012006|
|         748|   -5.520101|   -7.971591|    0.824076|    0.012007|
|         749|   -5.521147|   -7.969982|    0.824075|    0.012007|
|         750|   -5.523230|   -7.968381|    0.824075|    0.012008|
|         751|   -5.526343|   -7.966789|    0.824074|    0.012008|
|         752|   -5.530320|   -7.965211|    0.824073|    0.012008|
|         753|   -5.534909|   -7.963652|    0.824072|    0.012009|
|         754|   -5.539841|   -7.962123|    0.824072|    0.012009|
|         755|   -5.544888|   -7.960630|    0.824071|    0.012010|
|         756|   -5.549908|   -7.959180|    0.824070|    0.012010|
|         757|   -5.554848|   -7.957783|    0.824069|    0.012011|
|         758|   -5.559743|   -7.956453|    0.824068|    0.012011|
|         759|   -5.564681|   -7.955202|    0.824066|    0.012011|
|         760|   -5.569770|   -7.954050|    0.824065|    0.012012|
|         761|   -5.575113|   -7.953015|    0.824064|    0.012012|
|         762|   -5.580782|   -7.952121|    0.824063|    0.012012|
|         763|   -5.586814|   -7.951392|    0.824061|    0.012013|
|         764|   -5.593207|   -7.950856|    0.824060|    0.012013|
|         765|   -5.599936|   -7.950542|    0.824059|    0.012013|
|         766|   -5.606953|   -7.950481|    0.824057|    0.012013|
|         767|   -5.614205|   -7.950703|    0.824056|    0.012014|
|         768|   -5.621639|   -7.951238|    0.824054|    0.012014|
|         769|   -5.629203|   -7.952111|    0.824053|    0.012014|
|         770|   -5.636848|   -7.953346|    0.824051|    0.012014|
|         771|   -5.644526|   -7.954958|    0.824050|    0.012014|
|         772|   -5.652188|   -7.956959|    0.824048|    0.012014|
|         773|   -5.659782|   -7.959345|    0.824047|    0.012014|
|         774|   -5.667247|   -7.962105|    0.824045|    0.012014|
|         775|   -5.674519|   -7.965212|    0.824044|    0.012015|
|         776|   -5.681530|   -7.968626|    0.824042|    0.012015|
|         777|   -5.688211|   -7.972292|    0.824041|    0.012015|
|         778|   -5.694494|   -7.976139|    0.824039|    0.012015|
|         779|   -5.700317|   -7.980081|    0.824038|    0.012015|
|         780|   -5.705629|   -7.984022|    0.824037|    0.012014|
|         781|   -5.710388|   -7.987851|    0.824036|    0.012014|
|         782|   -5.714567|   -7.991455|    0.824035|    0.012014|
|         783|   -5.718153|   -7.994717|    0.824034|    0.012014|
|         784|   -5.721150|   -7.997526|    0.824033|    0.012014|
|         785|   -5.723574|   -7.999784|    0.824032|    0.012014|
|         786|   -5.725457|   -8.001413|    0.824031|    0.012014|
|         787|   -5.726841|   -8.002359|    0.824031|    0.012014|
|         788|   -5.727779|   -8.002599|    0.824030|    0.012013|
|         789|   -5.728329|   -8.002142|    0.824030|    0.012013|
|         790|   -5.728557|   -8.001031|    0.824029|    0.012013|
|         791|   -5.728529|   -7.999341|    0.824029|    0.012013|
|         792|   -5.728311|   -7.997171|    0.824029|    0.012013|
|         793|   -5.727966|   -7.994640|    0.824029|    0.012012|
|         794|   -5.727556|   -7.991880|    0.824029|    0.012012|
|         795|   -5.727136|   -7.989027|    0.824029|    0.012012|
|         796|   -5.726755|   -7.986216|    0.824029|    0.012011|
|         797|   -5.726458|   -7.983573|    0.824030|    0.012011|
|         798|   -5.726283|   -7.981215|    0.824030|    0.012011|
|         799|   -5.726260|   -7.979243|    0.824030|    0.012011|
|         800|   -5.726417|   -7.977742|    0.824031|    0.012010|
|         801|   -5.726774|   -7.976780|    0.824031|    0.012008|
+-----------------------------------------------------------------------+
|Fixed CL Mode                           |Value                         |
+-----------------------------------------------------------------------+
|Current CL                              |0.824031                      |
|Target CL                               |0.824                         |
|Previous AOA                            |2.78078                       |
|Changed AoA by                          |-0.000154001                  |
+-----------------------------------------------------------------------+
+----------------------------------------------------------------+
|  Inner_Iter|    rms[Rho]|     rms[nu]|          CL|          CD|
+----------------------------------------------------------------+
|         802|   -4.005765|   -7.879141|    0.824032|    0.012007|
|         803|   -4.389049|   -7.922721|    0.824033|    0.012007|
|         804|   -4.629120|   -7.938113|    0.824033|    0.012007|
|         805|   -4.705327|   -7.947798|    0.824034|    0.012006|
|         806|   -4.757749|   -7.955668|    0.824035|    0.012006|
|         807|   -4.826201|   -7.962683|    0.824036|    0.012006|
|         808|   -4.910872|   -7.969199|    0.824037|    0.012005|
|         809|   -4.999522|   -7.975436|    0.824038|    0.012005|
|         810|   -5.076732|   -7.981510|    0.824038|    0.012005|
|         811|   -5.134705|   -7.987402|    0.824039|    0.012005|
|         812|   -5.174555|   -7.993065|    0.824040|    0.012004|
|         813|   -5.199177|   -7.998520|    0.824041|    0.012004|
|         814|   -5.211573|   -8.003838|    0.824042|    0.012004|
|         815|   -5.217114|   -8.009041|    0.824043|    0.012003|
|         816|   -5.222395|   -8.014069|    0.824044|    0.012003|
|         817|   -5.232090|   -8.018812|    0.824045|    0.012003|
|         818|   -5.247523|   -8.023189|    0.824046|    0.012003|
|         819|   -5.267179|   -8.027172|    0.824047|    0.012003|
|         820|   -5.288203|   -8.030778|    0.824047|    0.012002|
|         821|   -5.308189|   -8.034031|    0.824048|    0.012002|
|         822|   -5.326385|   -8.036936|    0.824049|    0.012002|
|         823|   -5.343576|   -8.039479|    0.824050|    0.012002|
|         824|   -5.360982|   -8.041634|    0.824050|    0.012002|
|         825|   -5.379232|   -8.043396|    0.824051|    0.012002|
|         826|   -5.398023|   -8.044785|    0.824052|    0.012001|
|         827|   -5.416393|   -8.045845|    0.824052|    0.012001|
|         828|   -5.433187|   -8.046639|    0.824053|    0.012001|
|         829|   -5.447454|   -8.047240|    0.824053|    0.012001|
|         830|   -5.458666|   -8.047727|    0.824054|    0.012001|
|         831|   -5.466805|   -8.048172|    0.824054|    0.012001|
|         832|   -5.472371|   -8.048635|    0.824054|    0.012001|
|         833|   -5.476276|   -8.049161|    0.824055|    0.012001|
|         834|   -5.479636|   -8.049774|    0.824055|    0.012001|
|         835|   -5.483501|   -8.050479|    0.824055|    0.012001|
|         836|   -5.488647|   -8.051260|    0.824055|    0.012001|
|         837|   -5.495460|   -8.052089|    0.824056|    0.012001|
|         838|   -5.503917|   -8.052930|    0.824056|    0.012001|
|         839|   -5.513619|   -8.053739|    0.824056|    0.012001|
|         840|   -5.523861|   -8.054474|    0.824056|    0.012001|
|         841|   -5.533754|   -8.055090|    0.824056|    0.012001|
|         842|   -5.542413|   -8.055549|    0.824056|    0.012001|
|         843|   -5.549178|   -8.055820|    0.824056|    0.012002|
|         844|   -5.553809|   -8.055873|    0.824056|    0.012002|
|         845|   -5.556548|   -8.055692|    0.824055|    0.012002|
|         846|   -5.558021|   -8.055259|    0.824055|    0.012002|
|         847|   -5.559027|   -8.054568|    0.824055|    0.012002|
|         848|   -5.560316|   -8.053613|    0.824055|    0.012002|
|         849|   -5.562437|   -8.052393|    0.824054|    0.012002|
|         850|   -5.565665|   -8.050908|    0.824054|    0.012003|
|         851|   -5.570018|   -8.049163|    0.824054|    0.012003|
|         852|   -5.575307|   -8.047165|    0.824053|    0.012003|
|         853|   -5.581226|   -8.044924|    0.824053|    0.012003|
|         854|   -5.587437|   -8.042463|    0.824052|    0.012003|
|         855|   -5.593650|   -8.039797|    0.824052|    0.012004|
|         856|   -5.599678|   -8.036948|    0.824051|    0.012004|
|         857|   -5.605460|   -8.033947|    0.824050|    0.012004|
|         858|   -5.611048|   -8.030826|    0.824050|    0.012004|
|         859|   -5.616572|   -8.027630|    0.824049|    0.012005|
|         860|   -5.622197|   -8.024408|    0.824048|    0.012005|
|         861|   -5.628081|   -8.021213|    0.824047|    0.012005|
|         862|   -5.634348|   -8.018103|    0.824046|    0.012005|
|         863|   -5.641075|   -8.015141|    0.824045|    0.012005|
|         864|   -5.648294|   -8.012389|    0.824044|    0.012006|
|         865|   -5.656001|   -8.009911|    0.824043|    0.012006|
|         866|   -5.664170|   -8.007769|    0.824042|    0.012006|
|         867|   -5.672765|   -8.006023|    0.824040|    0.012006|
|         868|   -5.681750|   -8.004727|    0.824039|    0.012007|
|         869|   -5.691095|   -8.003930|    0.824038|    0.012007|
|         870|   -5.700771|   -8.003672|    0.824037|    0.012007|
|         871|   -5.710756|   -8.003984|    0.824035|    0.012007|
|         872|   -5.721020|   -8.004884|    0.824034|    0.012007|
|         873|   -5.731530|   -8.006381|    0.824033|    0.012008|
|         874|   -5.742240|   -8.008467|    0.824032|    0.012008|
|         875|   -5.753092|   -8.011119|    0.824031|    0.012008|
|         876|   -5.764014|   -8.014298|    0.824029|    0.012008|
|         877|   -5.774924|   -8.017950|    0.824028|    0.012008|
|         878|   -5.785729|   -8.022003|    0.824027|    0.012008|
|         879|   -5.796330|   -8.026370|    0.824026|    0.012009|
|         880|   -5.806621|   -8.030950|    0.824025|    0.012009|
|         881|   -5.816499|   -8.035628|    0.824024|    0.012009|
|         882|   -5.825861|   -8.040282|    0.824023|    0.012009|
|         883|   -5.834612|   -8.044787|    0.824023|    0.012009|
|         884|   -5.842667|   -8.049019|    0.824022|    0.012009|
|         885|   -5.849955|   -8.052861|    0.824021|    0.012009|
|         886|   -5.856420|   -8.056214|    0.824021|    0.012010|
|         887|   -5.862030|   -8.059000|    0.824020|    0.012010|
|         888|   -5.866769|   -8.061169|    0.824020|    0.012010|
|         889|   -5.870647|   -8.062702|    0.824019|    0.012010|
|         890|   -5.873692|   -8.063614|    0.824019|    0.012010|
|         891|   -5.875949|   -8.063952|    0.824019|    0.012010|
|         892|   -5.877481|   -8.063788|    0.824019|    0.012010|
|         893|   -5.878358|   -8.063221|    0.824019|    0.012010|
|         894|   -5.878659|   -8.062363|    0.824019|    0.012010|
|         895|   -5.878467|   -8.061337|    0.824019|    0.012010|
|         896|   -5.877863|   -8.060266|    0.824019|    0.012010|
|         897|   -5.876926|   -8.059270|    0.824019|    0.012010|
|         898|   -5.875731|   -8.058461|    0.824019|    0.012010|
|         899|   -5.874348|   -8.057938|    0.824020|    0.012010|
|         900|   -5.872839|   -8.057781|    0.824020|    0.012010|
|         901|   -5.871262|   -8.058058|    0.824020|    0.012008|
+-----------------------------------------------------------------------+
|Fixed CL Mode                           |Value                         |
+-----------------------------------------------------------------------+
|Current CL                              |0.82402                       |
|Target CL                               |0.824                         |
|Previous AOA                            |2.78062                       |
[...]
|        5298|   -6.040417|   -7.949799|    0.824237|    0.012012|
|        5299|   -6.047134|   -7.953439|    0.824237|    0.012012|
|        5300|   -6.053442|   -7.957122|    0.824237|    0.012012|
|        5301|   -6.059306|   -7.960863|    0.824237|    0.012011|
|        5302|   -6.064699|   -7.964670|    0.824237|    0.012011|
|        5303|   -6.069609|   -7.968548|    0.824237|    0.012011|
|        5304|   -6.074034|   -7.972500|    0.824237|    0.012011|
|        5305|   -6.077986|   -7.976529|    0.824237|    0.012011|
|        5306|   -6.081489|   -7.980630|    0.824237|    0.012011|
|        5307|   -6.084574|   -7.984802|    0.824238|    0.012011|
|        5308|   -6.087285|   -7.989039|    0.824238|    0.012011|
|        5309|   -6.089670|   -7.993337|    0.824238|    0.012011|
|        5310|   -6.091784|   -7.997691|    0.824238|    0.012011|
|        5311|   -6.093683|   -8.002098|    0.824238|    0.012011|
|        5312|   -6.095427|   -8.006556|    0.824238|    0.012011|
|        5313|   -6.097073|   -8.011062|    0.824238|    0.012011|
|        5314|   -6.098679|   -8.015617|    0.824238|    0.012011|
|        5315|   -6.100296|   -8.020226|    0.824238|    0.012011|
|        5316|   -6.101973|   -8.024896|    0.824238|    0.012011|
|        5317|   -6.103752|   -8.029629|    0.824238|    0.012011|
|        5318|   -6.105672|   -8.034429|    0.824239|    0.012011|
|        5319|   -6.107764|   -8.039297|    0.824239|    0.012011|
|        5320|   -6.110053|   -8.044234|    0.824239|    0.012011|
|        5321|   -6.112557|   -8.049242|    0.824239|    0.012011|
|        5322|   -6.115288|   -8.054321|    0.824239|    0.012012|
|        5323|   -6.118250|   -8.059472|    0.824239|    0.012012|
|        5324|   -6.121441|   -8.064693|    0.824239|    0.012012|
|        5325|   -6.124854|   -8.069982|    0.824239|    0.012012|
|        5326|   -6.128472|   -8.075335|    0.824240|    0.012012|
|        5327|   -6.132275|   -8.080749|    0.824240|    0.012012|
|        5328|   -6.136238|   -8.086218|    0.824240|    0.012012|
|        5329|   -6.140328|   -8.091734|    0.824240|    0.012012|
|        5330|   -6.144510|   -8.097290|    0.824240|    0.012012|
|        5331|   -6.148746|   -8.102878|    0.824240|    0.012012|
|        5332|   -6.152993|   -8.108489|    0.824240|    0.012012|
|        5333|   -6.157210|   -8.114112|    0.824240|    0.012012|
|        5334|   -6.161347|   -8.119739|    0.824241|    0.012013|
|        5335|   -6.165369|   -8.125360|    0.824241|    0.012013|
|        5336|   -6.169236|   -8.130966|    0.824241|    0.012013|
|        5337|   -6.172913|   -8.136548|    0.824241|    0.012013|
|        5338|   -6.176372|   -8.142099|    0.824241|    0.012013|
|        5339|   -6.179589|   -8.147610|    0.824241|    0.012013|
|        5340|   -6.182550|   -8.153074|    0.824241|    0.012013|
|        5341|   -6.185247|   -8.158487|    0.824241|    0.012013|
|        5342|   -6.187682|   -8.163844|    0.824241|    0.012013|
|        5343|   -6.189864|   -8.169140|    0.824241|    0.012013|
|        5344|   -6.191810|   -8.174376|    0.824241|    0.012013|
|        5345|   -6.193545|   -8.179548|    0.824242|    0.012013|
|        5346|   -6.195099|   -8.184658|    0.824242|    0.012013|
|        5347|   -6.196508|   -8.189708|    0.824242|    0.012013|
|        5348|   -6.197813|   -8.194698|    0.824242|    0.012014|
|        5349|   -6.199056|   -8.199633|    0.824242|    0.012014|
|        5350|   -6.200281|   -8.204515|    0.824242|    0.012014|
|        5351|   -6.201532|   -8.209348|    0.824242|    0.012014|
|        5352|   -6.202851|   -8.214135|    0.824242|    0.012014|
|        5353|   -6.204280|   -8.218879|    0.824242|    0.012014|
|        5354|   -6.205858|   -8.223583|    0.824242|    0.012014|
|        5355|   -6.207619|   -8.228249|    0.824242|    0.012014|
|        5356|   -6.209596|   -8.232880|    0.824242|    0.012014|
|        5357|   -6.211815|   -8.237477|    0.824242|    0.012014|
|        5358|   -6.214298|   -8.242041|    0.824242|    0.012014|
|        5359|   -6.217065|   -8.246573|    0.824242|    0.012014|
|        5360|   -6.220128|   -8.251071|    0.824242|    0.012014|
|        5361|   -6.223496|   -8.255536|    0.824242|    0.012014|
|        5362|   -6.227173|   -8.259966|    0.824242|    0.012014|
|        5363|   -6.231156|   -8.264359|    0.824242|    0.012014|
|        5364|   -6.235440|   -8.268713|    0.824242|    0.012014|
|        5365|   -6.240013|   -8.273025|    0.824242|    0.012014|
|        5366|   -6.244859|   -8.277292|    0.824242|    0.012014|
|        5367|   -6.249956|   -8.281512|    0.824242|    0.012014|
|        5368|   -6.255278|   -8.285683|    0.824242|    0.012014|
|        5369|   -6.260796|   -8.289802|    0.824242|    0.012014|
|        5370|   -6.266476|   -8.293868|    0.824241|    0.012014|
|        5371|   -6.272277|   -8.297879|    0.824241|    0.012014|
|        5372|   -6.278160|   -8.301834|    0.824241|    0.012014|
|        5373|   -6.284078|   -8.305734|    0.824241|    0.012014|
|        5374|   -6.289985|   -8.309579|    0.824241|    0.012013|
|        5375|   -6.295832|   -8.313370|    0.824241|    0.012013|
|        5376|   -6.301572|   -8.317112|    0.824241|    0.012013|
|        5377|   -6.307156|   -8.320806|    0.824241|    0.012013|
|        5378|   -6.312539|   -8.324457|    0.824241|    0.012013|
|        5379|   -6.317679|   -8.328072|    0.824241|    0.012013|
|        5380|   -6.322536|   -8.331656|    0.824241|    0.012013|
|        5381|   -6.327079|   -8.335216|    0.824241|    0.012013|
|        5382|   -6.331279|   -8.338760|    0.824241|    0.012013|
|        5383|   -6.335118|   -8.342297|    0.824241|    0.012013|
|        5384|   -6.338581|   -8.345834|    0.824241|    0.012013|
|        5385|   -6.341665|   -8.349380|    0.824241|    0.012013|
|        5386|   -6.344369|   -8.352942|    0.824241|    0.012012|
|        5387|   -6.346701|   -8.356528|    0.824241|    0.012012|
|        5388|   -6.348676|   -8.360143|    0.824241|    0.012012|
|        5389|   -6.350313|   -8.363794|    0.824241|    0.012012|
|        5390|   -6.351633|   -8.367486|    0.824241|    0.012012|
|        5391|   -6.352661|   -8.371220|    0.824241|    0.012012|
|        5392|   -6.353426|   -8.375001|    0.824241|    0.012012|
|        5393|   -6.353954|   -8.378827|    0.824241|    0.012012|
|        5394|   -6.354272|   -8.382697|    0.824241|    0.012012|
|        5395|   -6.354407|   -8.386609|    0.824241|    0.012012|
|        5396|   -6.354384|   -8.390557|    0.824241|    0.012011|
|        5397|   -6.354224|   -8.394534|    0.824241|    0.012011|
|        5398|   -6.353948|   -8.398534|    0.824241|    0.012011|
|        5399|   -6.353573|   -8.402548|    0.824241|    0.012011|
|        5400|   -6.353114|   -8.406564|    0.824242|    0.012011|
|        5401|   -6.352583|   -8.410573|    0.824242|    0.012011|
|        5402|   -6.351991|   -8.414564|    0.824242|    0.012011|
|        5403|   -6.351345|   -8.418524|    0.824242|    0.012011|
|        5404|   -6.350651|   -8.422444|    0.824242|    0.012011|
|        5405|   -6.349915|   -8.426311|    0.824242|    0.012011|
|        5406|   -6.349140|   -8.430117|    0.824242|    0.012010|
|        5407|   -6.348329|   -8.433852|    0.824242|    0.012010|
|        5408|   -6.347484|   -8.437507|    0.824243|    0.012010|
|        5409|   -6.346608|   -8.441076|    0.824243|    0.012010|
|        5410|   -6.345703|   -8.444554|    0.824243|    0.012010|
|        5411|   -6.344770|   -8.447935|    0.824243|    0.012010|
|        5412|   -6.343812|   -8.451215|    0.824243|    0.012010|
|        5413|   -6.342833|   -8.454393|    0.824243|    0.012010|
|        5414|   -6.341835|   -8.457466|    0.824243|    0.012010|
|        5415|   -6.340823|   -8.460435|    0.824243|    0.012010|
|        5416|   -6.339801|   -8.463300|    0.824244|    0.012010|
|        5417|   -6.338776|   -8.466059|    0.824244|    0.012010|
|        5418|   -6.337753|   -8.468715|    0.824244|    0.012010|
|        5419|   -6.336738|   -8.471266|    0.824244|    0.012010|
|        5420|   -6.335741|   -8.473712|    0.824244|    0.012009|
|        5421|   -6.334768|   -8.476053|    0.824244|    0.012009|
|        5422|   -6.333830|   -8.478288|    0.824244|    0.012009|
|        5423|   -6.332937|   -8.480416|    0.824244|    0.012009|
|        5424|   -6.332098|   -8.482436|    0.824244|    0.012009|
|        5425|   -6.331326|   -8.484347|    0.824244|    0.012009|
|        5426|   -6.330633|   -8.486146|    0.824244|    0.012009|
|        5427|   -6.330031|   -8.487834|    0.824245|    0.012009|
|        5428|   -6.329534|   -8.489410|    0.824245|    0.012009|
|        5429|   -6.329155|   -8.490875|    0.824245|    0.012009|
|        5430|   -6.328908|   -8.492229|    0.824245|    0.012009|
|        5431|   -6.328809|   -8.493476|    0.824245|    0.012009|
|        5432|   -6.328872|   -8.494618|    0.824245|    0.012009|
|        5433|   -6.329110|   -8.495661|    0.824245|    0.012009|
|        5434|   -6.329540|   -8.496610|    0.824245|    0.012009|
|        5435|   -6.330173|   -8.497475|    0.824245|    0.012009|
|        5436|   -6.331024|   -8.498262|    0.824245|    0.012009|
|        5437|   -6.332106|   -8.498983|    0.824245|    0.012009|
|        5438|   -6.333428|   -8.499648|    0.824245|    0.012009|
|        5439|   -6.335002|   -8.500270|    0.824245|    0.012009|
|        5440|   -6.336837|   -8.500860|    0.824245|    0.012010|
|        5441|   -6.338937|   -8.501432|    0.824245|    0.012010|
|        5442|   -6.341310|   -8.501998|    0.824245|    0.012010|
|        5443|   -6.343956|   -8.502571|    0.824245|    0.012010|
|        5444|   -6.346876|   -8.503163|    0.824245|    0.012010|
|        5445|   -6.350068|   -8.503786|    0.824245|    0.012010|
|        5446|   -6.353526|   -8.504451|    0.824245|    0.012010|
|        5447|   -6.357241|   -8.505167|    0.824245|    0.012010|
|        5448|   -6.361201|   -8.505943|    0.824245|    0.012010|
|        5449|   -6.365391|   -8.506788|    0.824245|    0.012010|
|        5450|   -6.369792|   -8.507708|    0.824245|    0.012010|
|        5451|   -6.374382|   -8.508708|    0.824245|    0.012010|
|        5452|   -6.379135|   -8.509793|    0.824244|    0.012010|
|        5453|   -6.384020|   -8.510965|    0.824244|    0.012010|
|        5454|   -6.389005|   -8.512227|    0.824244|    0.012010|
|        5455|   -6.394052|   -8.513579|    0.824244|    0.012011|
|        5456|   -6.399122|   -8.515022|    0.824244|    0.012011|
|        5457|   -6.404173|   -8.516555|    0.824244|    0.012011|
|        5458|   -6.409162|   -8.518177|    0.824244|    0.012011|
|        5459|   -6.414041|   -8.519885|    0.824244|    0.012011|
|        5460|   -6.418766|   -8.521677|    0.824244|    0.012011|
|        5461|   -6.423292|   -8.523551|    0.824244|    0.012011|
|        5462|   -6.427573|   -8.525502|    0.824243|    0.012011|
|        5463|   -6.431570|   -8.527529|    0.824243|    0.012011|
|        5464|   -6.435244|   -8.529627|    0.824243|    0.012011|
|        5465|   -6.438563|   -8.531792|    0.824243|    0.012011|
|        5466|   -6.441499|   -8.534022|    0.824243|    0.012011|
|        5467|   -6.444032|   -8.536312|    0.824243|    0.012011|
|        5468|   -6.446148|   -8.538660|    0.824243|    0.012012|
|        5469|   -6.447843|   -8.541062|    0.824242|    0.012012|
|        5470|   -6.449116|   -8.543515|    0.824242|    0.012012|
|        5471|   -6.449979|   -8.546015|    0.824242|    0.012012|
|        5472|   -6.450446|   -8.548560|    0.824242|    0.012012|
|        5473|   -6.450540|   -8.551147|    0.824242|    0.012012|
|        5474|   -6.450291|   -8.553772|    0.824242|    0.012012|
|        5475|   -6.449730|   -8.556433|    0.824241|    0.012012|
|        5476|   -6.448893|   -8.559127|    0.824241|    0.012012|
|        5477|   -6.447821|   -8.561851|    0.824241|    0.012012|
|        5478|   -6.446552|   -8.564602|    0.824241|    0.012012|
|        5479|   -6.445129|   -8.567379|    0.824241|    0.012012|
|        5480|   -6.443592|   -8.570179|    0.824240|    0.012012|
|        5481|   -6.441980|   -8.572999|    0.824240|    0.012012|
|        5482|   -6.440332|   -8.575838|    0.824240|    0.012012|
|        5483|   -6.438685|   -8.578693|    0.824240|    0.012012|
|        5484|   -6.437071|   -8.581563|    0.824240|    0.012012|
|        5485|   -6.435523|   -8.584446|    0.824240|    0.012012|
|        5486|   -6.434068|   -8.587340|    0.824239|    0.012012|
|        5487|   -6.432732|   -8.590246|    0.824239|    0.012012|
|        5488|   -6.431539|   -8.593164|    0.824239|    0.012012|
|        5489|   -6.430508|   -8.596093|    0.824239|    0.012012|
|        5490|   -6.429656|   -8.599036|    0.824239|    0.012012|
|        5491|   -6.428999|   -8.601995|    0.824239|    0.012012|
|        5492|   -6.428547|   -8.604970|    0.824238|    0.012012|
|        5493|   -6.428311|   -8.607966|    0.824238|    0.012012|
|        5494|   -6.428299|   -8.610985|    0.824238|    0.012012|
|        5495|   -6.428517|   -8.614030|    0.824238|    0.012012|
|        5496|   -6.428968|   -8.617107|    0.824238|    0.012012|
|        5497|   -6.429654|   -8.620217|    0.824238|    0.012012|
|        5498|   -6.430577|   -8.623367|    0.824238|    0.012012|
|        5499|   -6.431735|   -8.626560|    0.824238|    0.011998|
+-----------------------------------------------------------------------+
|Fixed CL Mode (Finite Difference)       |Value                         |
+-----------------------------------------------------------------------+
|Delta CL / Delta AoA                    |0.23734                       |
|Delta CD / Delta CL                     |0.0173315                     |
|Delta CMz / Delta CL                    |-0.000498245                  |
+-----------------------------------------------------------------------+
Writing Flow Meta-Data file: flow.meta

----------------------------- Solver Exit -------------------------------

Maximum number of iterations reached (ITER = 5500) before convergence.
+-----------------------------------------------------------------------+
|      Convergence Field     |     Value    |   Criterion  |  Converged |
+-----------------------------------------------------------------------+
|                    rms[Rho]|      -6.43174|         < -12|          No|
+-----------------------------------------------------------------------+
-------------------------------------------------------------------------

--------------------------- Finalizing Solver ---------------------------
Deleted CNumerics container.
Deleted CIntegration container.
Deleted CSolver container.
Deleted CIteration container.
Deleted CInterface container.
Deleted CGeometry container.
Deleted CFreeFormDefBox class.
Deleted CSurfaceMovement class.
Deleted CVolumetricMovement class.
Deleted CConfig container.
Deleted nInst container.
Deleted COutput class.
-------------------------------------------------------------------------

------------------------- Exit Success (SU2_CFD) ------------------------


-------------------------------------------------------------------------
|    ___ _   _ ___                                                      |
|   / __| | | |_  )   Release 8.0.0 "Harrier"                           |
|   \__ \ |_| |/ /                                                      |
|   |___/\___//___|   Suite (Solution Exporting Code)                   |
|                                                                       |
-------------------------------------------------------------------------
| SU2 Project Website: https://su2code.github.io                        |
|                                                                       |
| The SU2 Project is maintained by the SU2 Foundation                   |
| (http://su2foundation.org)                                            |
-------------------------------------------------------------------------
| Copyright 2012-2023, SU2 Contributors                                 |
|                                                                       |
| SU2 is free software; you can redistribute it and/or                  |
| modify it under the terms of the GNU Lesser General Public            |
| License as published by the Free Software Foundation; either          |
| version 2.1 of the License, or (at your option) any later version.    |
|                                                                       |
| SU2 is distributed in the hope that it will be useful,                |
| but WITHOUT ANY WARRANTY; without even the implied warranty of        |
| MERCHANTABILITY or FITNESS FOR A PARTICULAR PURPOSE. See the GNU      |
| Lesser General Public License for more details.                       |
|                                                                       |
| You should have received a copy of the GNU Lesser General Public      |
| License along with SU2. If not, see <http://www.gnu.org/licenses/>.   |
-------------------------------------------------------------------------

----------------- Physical Case Definition ( Zone 0 ) -------------------
Input mesh file name: mesh_RAE2822_turb_deform.su2

-------------------- Output Information ( Zone 0 ) ----------------------
The tabular file format is CSV (.csv).
Flow variables file name: flow.

------------- Config File Boundary Information ( Zone 0 ) ---------------
+-----------------------------------------------------------------------+
|                        Marker Type|                        Marker Name|
+-----------------------------------------------------------------------+
|                          Far-field|                           FARFIELD|
+-----------------------------------------------------------------------+
|                     Heat flux wall|                            AIRFOIL|
+-----------------------------------------------------------------------+
Two dimensional problem.
13937 grid points before partitioning.
22842 volume elements before partitioning.
2 surface markers.
192 boundary elements in index 0 (Marker = AIRFOIL).
40 boundary elements in index 1 (Marker = FARFIELD).
Executing the partitioning functions.
Building the graph adjacency structure.
Calling ParMETIS... graph partitioning complete (831 edge cuts).
Distributing ParMETIS coloring.
Rebalancing vertices.
Rebalancing volume element connectivity.
Rebalancing markers and surface elements.
14875 vertices including ghost points. 
23674 interior elements including halo cells. 
18780 triangles.
4894 quadrilaterals.
Establishing MPI communication patterns.
Identify vertices.
Storing a mapping from global to local point index.

------------------------- Solution Postprocessing -----------------------
Reading and storing the solution from restart_flow.
Volume output fields: COORDINATES, SOLUTION
  Info: Ignoring the following screen output fields:
  RMS_DENSITY, RMS_NU_TILDE, LIFT, DRAG
Screen output fields: INNER_ITER
  Info: Ignoring the following history output groups:
  RMS_RES, AERO_COEFF
History output group(s): ITER
Warning: No (valid) fields chosen for convergence monitoring. Convergence monitoring inactive.
Warning: No (valid) fields chosen for time convergence monitoring. Time convergence monitoring inactive.
|Paraview                           |flow.vtu                           |
|Paraview surface                   |surface_flow.vtu                   |
|CSV file                           |surface_flow.csv                   |

------------------------- Finalize Solver -------------------------
Deleted CGeometry container.
Deleted CSolver class.
Deleted CConfig container.
Deleted COutput class.

Completed in 0.015788 seconds on 6 cores.

------------------------- Exit Success (SU2_SOL) ------------------------

