
-------------------------------------------------------------------------
|    ___ _   _ ___                                                      |
|   / __| | | |_  )   Release 8.0.0 "Harrier"                           |
|   \__ \ |_| |/ /                                                      |
|   |___/\___//___|   Suite (Computational Fluid Dynamics Code)         |
|                                                                       |
-------------------------------------------------------------------------
| SU2 Project Website: https://su2code.github.io                        |
|                                                                       |
| The SU2 Project is maintained by the SU2 Foundation                   |
| (http://su2foundation.org)                                            |
-------------------------------------------------------------------------
| Copyright 2012-2023, SU2 Contributors                                 |
|                                                                       |
| SU2 is free software; you can redistribute it and/or                  |
| modify it under the terms of the GNU Lesser General Public            |
| License as published by the Free Software Foundation; either          |
| version 2.1 of the License, or (at your option) any later version.    |
|                                                                       |
| SU2 is distributed in the hope that it will be useful,                |
| but WITHOUT ANY WARRANTY; without even the implied warranty of        |
| MERCHANTABILITY or FITNESS FOR A PARTICULAR PURPOSE. See the GNU      |
| Lesser General Public License for more details.                       |
|                                                                       |
| You should have received a copy of the GNU Lesser General Public      |
| License along with SU2. If not, see <http://www.gnu.org/licenses/>.   |
-------------------------------------------------------------------------

Parsing config file for zone 0

----------------- Physical Case Definition ( Zone 0 ) -------------------
Compressible RANS equations.
Turbulence model: Spalart-Allmaras-noft2
Hybrid RANS/LES: No Hybrid RANS/LES
Mach number: 0.734.
Angle of attack (AoA): 2.31 deg, and angle of sideslip (AoS): 0 deg.
Reynolds number: 6.5e+06. Reference length 1.
Fixed CL mode, target value: 0.824.
Reading and writing binary SU2 native restart files.
Read flow solution from: solution_flow.dat.
Dimensional simulation.
The reference area is 1 m^2.
The semi-span will be computed using the max y(3D) value.
The reference length is 1 m.
Reference origin for moment evaluation is (0.25, 0, 0).
Surface(s) where the force coefficients are evaluated: AIRFOIL.

Surface(s) plotted in the output file: AIRFOIL.
Surface(s) affected by the design variables: AIRFOIL.
Input mesh file name: mesh_RAE2822_turb_deform.su2

--------------- Space Numerical Integration ( Zone 0 ) ------------------
Jameson-Schmidt-Turkel scheme (2nd order in space) for the flow inviscid terms.
JST viscous coefficients (2nd & 4th): 0.5, 0.02.
The method includes a grid stretching correction (p = 0.3).
Scalar upwind solver for the turbulence model.
First order integration in space.
Average of gradients with correction (viscous flow terms).
Average of gradients with correction (viscous turbulence terms).
Gradient for viscous and source terms: inverse-distance weighted Least-Squares.

--------------- Time Numerical Integration  ( Zone 0 ) ------------------
Local time stepping (steady state simulation).
Euler implicit method for the flow equations.
FGMRES is used for solving the linear system.
Using a ILU(0) preconditioning.
Convergence criteria of the linear solver: 1e-06.
Max number of linear iterations: 10.
No CFL adaptation.
Courant-Friedrichs-Lewy number:       10
Euler implicit time integration for the turbulence model.

------------------ Convergence Criteria  ( Zone 0 ) ---------------------
Maximum number of solver subiterations: 5500.
Begin convergence monitoring at iteration 10.
Residual minimum value: 1e-12.
Cauchy series min. value: 1e-06.
Number of Cauchy elements: 100.
Begin windowed time average at iteration 0.

-------------------- Output Information ( Zone 0 ) ----------------------
File writing frequency: 
+------------------------------------+
|                     File| Frequency|
+------------------------------------+
|                  RESTART|     10000|
|                 PARAVIEW|     10000|
|         SURFACE_PARAVIEW|     10000|
|              SURFACE_CSV|     10000|
+------------------------------------+
Writing the convergence history file every 1 inner iterations.
Writing the screen convergence history every 1 inner iterations.
The tabular file format is CSV (.csv).
Convergence history file name: history_direct.
Forces breakdown file name: forces_breakdown.dat.
Surface file name: surface_flow.
Volume file name: flow.
Restart file name: restart_flow.dat.

------------- Config File Boundary Information ( Zone 0 ) ---------------
+-----------------------------------------------------------------------+
|                        Marker Type|                        Marker Name|
+-----------------------------------------------------------------------+
|                          Far-field|                           FARFIELD|
+-----------------------------------------------------------------------+
|                     Heat flux wall|                            AIRFOIL|
+-----------------------------------------------------------------------+

-------------------- Output Preprocessing ( Zone 0 ) --------------------

WARNING: SURFACE_PRESSURE_DROP can only be computed for at least 2 surfaces (outlet, inlet, ...)

Screen output fields: INNER_ITER, RMS_DENSITY, RMS_NU_TILDE, LIFT, DRAG
History output group(s): ITER, RMS_RES, AERO_COEFF
Convergence field(s): RMS_DENSITY
Warning: No (valid) fields chosen for time convergence monitoring. Time convergence monitoring inactive.
Volume output fields: COORDINATES, SOLUTION, PRIMITIVE

------------------- Geometry Preprocessing ( Zone 0 ) -------------------
Two dimensional problem.
13937 grid points before partitioning.
22842 volume elements before partitioning.
2 surface markers.
192 boundary elements in index 0 (Marker = AIRFOIL).
40 boundary elements in index 1 (Marker = FARFIELD).
Executing the partitioning functions.
Building the graph adjacency structure.
Calling ParMETIS... graph partitioning complete (831 edge cuts).
Distributing ParMETIS coloring.
Rebalancing vertices.
Rebalancing volume element connectivity.
Rebalancing markers and surface elements.
14875 vertices including ghost points. 
23674 interior elements including halo cells. 
18780 triangles.
4894 quadrilaterals.
Establishing MPI communication patterns.
Setting point connectivity.
Renumbering points (Reverse Cuthill McKee Ordering).
Recomputing point connectivity.
Setting element connectivity.
Checking the numerical grid orientation.
All volume elements are correctly orientend.
All surface elements are correctly orientend.
Identifying edges and vertices.
Setting the control volume structure.
Area of the computational grid: 32209.9.
Searching for the closest normal neighbors to the surfaces.
Storing a mapping from global to local point index.
Compute the surface curvature.
Max K: 173.551. Mean K: 7.82094. Standard deviation K: 23.9073.
Checking for periodicity.
Computing mesh quality statistics for the dual control volumes.
+--------------------------------------------------------------+
|           Mesh Quality Metric|        Minimum|        Maximum|
+--------------------------------------------------------------+
|    Orthogonality Angle (deg.)|        75.1454|         89.999|
|     CV Face Area Aspect Ratio|        1.00369|        3358.52|
|           CV Sub-Volume Ratio|        1.00046|        1215.07|
+--------------------------------------------------------------+
Finding max control volume width.
Communicating number of neighbors.
Wetted area = 2.0219 m.
Area projection in the x-plane = 0.124799 m, y-plane = 0.995873 m.
Max. coordinate in the x-direction = 1 m, y-direction = 0.0620813 m.
Min. coordinate in the x-direction = 0 m, y-direction = -0.0599135 m.
Computing wall distances.

-------------------- Solver Preprocessing ( Zone 0 ) --------------------
WARNING: AoA in the solution file (2.79038 deg.) +
         AoA offset in mesh file (0 deg.) = 2.79038 deg.
WARNING: SU2 will use the dCD/dCL provided in the direct solution file: 0.0174701.
WARNING: SU2 will use the dCMz/dCL provided in the direct solution file: -0.000307502.
Viscous flow: Computing pressure using the ideal gas law
based on the free-stream temperature and a density computed
from the Reynolds number.
Force coefficients computed using free-stream values.

-- Models:
+------------------------------------------------------------------------------+
|          Viscosity Model|        Conductivity Model|              Fluid Model|
+------------------------------------------------------------------------------+
|               SUTHERLAND|          CONSTANT_PRANDTL|             STANDARD_AIR|
+------------------------------------------------------------------------------+
-- Fluid properties:
+------------------------------------------------------------------------------+
|                  Name|    Dim. value|    Ref. value|      Unit|Non-dim. value|
+------------------------------------------------------------------------------+
|        Ref. Viscosity|     1.716e-05|             1|   N.s/m^2|     1.716e-05|
|      Sutherland Temp.|        273.15|             1|         K|        273.15|
|     Sutherland Const.|         110.4|             1|         K|         110.4|
+------------------------------------------------------------------------------+
|        Prandtl (Lam.)|             -|             -|         -|          0.71|
|       Prandtl (Turb.)|             -|             -|         -|           0.9|
+------------------------------------------------------------------------------+
|          Gas Constant|       287.058|             1|  N.m/kg.K|       287.058|
|      Spec. Heat Ratio|             -|             -|         -|           1.4|
+------------------------------------------------------------------------------+
-- Initial and free-stream conditions:
+------------------------------------------------------------------------------+
|                  Name|    Dim. value|    Ref. value|      Unit|Non-dim. value|
+------------------------------------------------------------------------------+
|       Static Pressure|         38515|             1|        Pa|         38515|
|               Density|      0.465631|             1|    kg/m^3|      0.465631|
|           Temperature|        288.15|             1|         K|        288.15|
|          Total Energy|        237984|             1|   m^2/s^2|        237984|
|            Velocity-X|       249.482|             1|       m/s|       249.482|
|            Velocity-Y|       12.1597|             1|       m/s|       12.1597|
|    Velocity Magnitude|       249.778|             1|       m/s|       249.778|
+------------------------------------------------------------------------------+
|             Viscosity|    1.7893e-05|             1|   N.s/m^2|    1.7893e-05|
|          Conductivity|             -|             1|   W/m^2.K|             -|
|     Turb. Kin. Energy|       233.959|             1|   m^2/s^2|       233.959|
|     Spec. Dissipation|        608834|             1|       1/s|        608834|
+------------------------------------------------------------------------------+
|           Mach Number|             -|             -|         -|         0.734|
|       Reynolds Number|             -|             -|         -|       6.5e+06|
+------------------------------------------------------------------------------+
Initialize Jacobian structure (Navier-Stokes). MG level: 0.
Initialize Jacobian structure (SA model).

------------------- Numerics Preprocessing ( Zone 0 ) -------------------

----------------- Integration Preprocessing ( Zone 0 ) ------------------

------------------- Iteration Preprocessing ( Zone 0 ) ------------------
Euler/Navier-Stokes/RANS fluid iteration.

------------------------------ Begin Solver -----------------------------

Simulation Run using the Single-zone Driver
WARNING: SU2 was not compiled for an AVX-capable architecture. Performance could be better,
         see https://su2code.github.io/docs_v7/Build-SU2-Linux-MacOS/#compiler-optimizations
+----------------------------------------------------------------+
|  Inner_Iter|    rms[Rho]|     rms[nu]|          CL|          CD|
+----------------------------------------------------------------+
|           0|   -5.425552|   -6.616801|    0.823997|    0.011982|
|           1|   -5.481139|   -6.709176|    0.823990|    0.011978|
|           2|   -5.537199|   -6.816053|    0.823983|    0.011977|
|           3|   -5.576280|   -6.931155|    0.823978|    0.011977|
|           4|   -5.601913|   -7.047617|    0.823974|    0.011978|
|           5|   -5.618839|   -7.154002|    0.823972|    0.011978|
|           6|   -5.629340|   -7.233741|    0.823971|    0.011978|
|           7|   -5.634849|   -7.274701|    0.823970|    0.011977|
|           8|   -5.636310|   -7.281880|    0.823971|    0.011976|
|           9|   -5.633862|   -7.271495|    0.823972|    0.011975|
|          10|   -5.627164|   -7.256338|    0.823974|    0.011974|
|          11|   -5.616229|   -7.241830|    0.823976|    0.011974|
|          12|   -5.601909|   -7.229019|    0.823980|    0.011974|
|          13|   -5.585714|   -7.217734|    0.823984|    0.011975|
|          14|   -5.569308|   -7.208015|    0.823988|    0.011975|
|          15|   -5.554127|   -7.200037|    0.823993|    0.011977|
|          16|   -5.541186|   -7.193427|    0.823997|    0.011978|
|          17|   -5.531024|   -7.186865|    0.824000|    0.011980|
|          18|   -5.523711|   -7.178422|    0.824003|    0.011981|
|          19|   -5.518899|   -7.166526|    0.824006|    0.011983|
|          20|   -5.515926|   -7.150930|    0.824007|    0.011985|
|          21|   -5.513977|   -7.132934|    0.824008|    0.011986|
|          22|   -5.512266|   -7.114742|    0.824008|    0.011988|
|          23|   -5.510192|   -7.098569|    0.824008|    0.011989|
|          24|   -5.507416|   -7.086049|    0.824007|    0.011990|
|          25|   -5.503851|   -7.078080|    0.824006|    0.011991|
|          26|   -5.499589|   -7.074904|    0.824004|    0.011992|
|          27|   -5.494813|   -7.076259|    0.824002|    0.011992|
|          28|   -5.489731|   -7.081530|    0.824000|    0.011993|
|          29|   -5.484542|   -7.089849|    0.823998|    0.011993|
|          30|   -5.479426|   -7.100182|    0.823996|    0.011994|
|          31|   -5.474535|   -7.111402|    0.823994|    0.011994|
|          32|   -5.469994|   -7.122377|    0.823992|    0.011994|
|          33|   -5.465896|   -7.132070|    0.823990|    0.011995|
|          34|   -5.462296|   -7.139653|    0.823988|    0.011995|
|          35|   -5.459212|   -7.144590|    0.823986|    0.011995|
|          36|   -5.456631|   -7.146686|    0.823985|    0.011995|
|          37|   -5.454511|   -7.146053|    0.823983|    0.011995|
|          38|   -5.452790|   -7.143046|    0.823982|    0.011995|
|          39|   -5.451398|   -7.138159|    0.823980|    0.011995|
|          40|   -5.450263|   -7.131947|    0.823979|    0.011995|
|          41|   -5.449317|   -7.124969|    0.823977|    0.011995|
|          42|   -5.448506|   -7.117756|    0.823975|    0.011995|
|          43|   -5.447789|   -7.110797|    0.823974|    0.011995|
|          44|   -5.447140|   -7.104536|    0.823972|    0.011995|
|          45|   -5.446547|   -7.099361|    0.823971|    0.011995|
|          46|   -5.446007|   -7.095595|    0.823969|    0.011995|
|          47|   -5.445524|   -7.093482|    0.823968|    0.011995|
|          48|   -5.445105|   -7.093175|    0.823967|    0.011995|
|          49|   -5.444757|   -7.094726|    0.823965|    0.011995|
|          50|   -5.444491|   -7.098079|    0.823964|    0.011995|
|          51|   -5.444314|   -7.103074|    0.823963|    0.011995|
|          52|   -5.444239|   -7.109454|    0.823963|    0.011995|
|          53|   -5.444277|   -7.116879|    0.823962|    0.011995|
|          54|   -5.444444|   -7.124950|    0.823961|    0.011995|
|          55|   -5.444760|   -7.133243|    0.823961|    0.011995|
|          56|   -5.445246|   -7.141344|    0.823961|    0.011995|
|          57|   -5.445925|   -7.148886|    0.823961|    0.011995|
|          58|   -5.446818|   -7.155585|    0.823961|    0.011995|
|          59|   -5.447941|   -7.161260|    0.823961|    0.011995|
|          60|   -5.449303|   -7.165842|    0.823961|    0.011996|
|          61|   -5.450900|   -7.169369|    0.823961|    0.011996|
|          62|   -5.452720|   -7.171965|    0.823961|    0.011996|
|          63|   -5.454741|   -7.173820|    0.823961|    0.011996|
|          64|   -5.456936|   -7.175155|    0.823962|    0.011996|
|          65|   -5.459276|   -7.176195|    0.823962|    0.011996|
|          66|   -5.461736|   -7.177148|    0.823962|    0.011996|
|          67|   -5.464297|   -7.178182|    0.823962|    0.011996|
|          68|   -5.466953|   -7.179414|    0.823962|    0.011996|
|          69|   -5.469702|   -7.180908|    0.823962|    0.011996|
|          70|   -5.472552|   -7.182672|    0.823962|    0.011996|
|          71|   -5.475513|   -7.184670|    0.823962|    0.011996|
|          72|   -5.478592|   -7.186836|    0.823962|    0.011996|
|          73|   -5.481789|   -7.189088|    0.823962|    0.011996|
|          74|   -5.485098|   -7.191349|    0.823962|    0.011997|
|          75|   -5.488501|   -7.193561|    0.823962|    0.011997|
|          76|   -5.491976|   -7.195696|    0.823962|    0.011997|
|          77|   -5.495498|   -7.197758|    0.823962|    0.011997|
|          78|   -5.499041|   -7.199784|    0.823962|    0.011997|
|          79|   -5.502589|   -7.201832|    0.823962|    0.011997|
|          80|   -5.506133|   -7.203976|    0.823962|    0.011998|
|          81|   -5.509677|   -7.206289|    0.823962|    0.011998|
|          82|   -5.513231|   -7.208841|    0.823962|    0.011998|
|          83|   -5.516814|   -7.211688|    0.823961|    0.011998|
|          84|   -5.520444|   -7.214871|    0.823961|    0.011998|
|          85|   -5.524136|   -7.218418|    0.823961|    0.011999|
|          86|   -5.527900|   -7.222340|    0.823961|    0.011999|
|          87|   -5.531731|   -7.226639|    0.823960|    0.011999|
|          88|   -5.535615|   -7.231310|    0.823960|    0.011999|
|          89|   -5.539525|   -7.236343|    0.823960|    0.011999|
|          90|   -5.543422|   -7.241725|    0.823959|    0.012000|
|          91|   -5.547260|   -7.247441|    0.823959|    0.012000|
|          92|   -5.550989|   -7.253478|    0.823959|    0.012000|
|          93|   -5.554560|   -7.259822|    0.823959|    0.012000|
|          94|   -5.557925|   -7.266459|    0.823959|    0.012001|
|          95|   -5.561043|   -7.273375|    0.823959|    0.012001|
|          96|   -5.563883|   -7.280555|    0.823959|    0.012001|
|          97|   -5.566421|   -7.287984|    0.823959|    0.012001|
|          98|   -5.568649|   -7.295645|    0.823959|    0.012001|
|          99|   -5.570565|   -7.303514|    0.823959|    0.012002|
|         100|   -5.572181|   -7.311564|    0.823959|    0.012002|
|         101|   -5.573517|   -7.319761|    0.823959|    0.012005|
+-----------------------------------------------------------------------+
|Fixed CL Mode                           |Value                         |
+-----------------------------------------------------------------------+
|Current CL                              |0.823959                      |
|Target CL                               |0.824                         |
|Previous AOA                            |2.79038                       |
|Changed AoA by                          |0.000204548                   |
+-----------------------------------------------------------------------+
+----------------------------------------------------------------+
|  Inner_Iter|    rms[Rho]|     rms[nu]|          CL|          CD|
+----------------------------------------------------------------+
|         102|   -3.882531|   -7.317922|    0.823960|    0.012006|
|         103|   -4.267432|   -7.331294|    0.823960|    0.012006|
|         104|   -4.513611|   -7.341073|    0.823960|    0.012006|
|         105|   -4.594060|   -7.350122|    0.823961|    0.012007|
|         106|   -4.648161|   -7.358849|    0.823961|    0.012007|
|         107|   -4.717597|   -7.367307|    0.823962|    0.012007|
|         108|   -4.802649|   -7.375474|    0.823962|    0.012008|
|         109|   -4.889864|   -7.383322|    0.823962|    0.012008|
|         110|   -4.962332|   -7.390821|    0.823962|    0.012009|
|         111|   -5.012524|   -7.397942|    0.823963|    0.012009|
|         112|   -5.043591|   -7.404666|    0.823963|    0.012010|
|         113|   -5.060573|   -7.410992|    0.823963|    0.012010|
|         114|   -5.067787|   -7.416935|    0.823963|    0.012010|
|         115|   -5.070643|   -7.422512|    0.823963|    0.012011|
|         116|   -5.074829|   -7.427733|    0.823963|    0.012011|
|         117|   -5.084014|   -7.432603|    0.823962|    0.012012|
|         118|   -5.098868|   -7.437127|    0.823962|    0.012012|
|         119|   -5.117576|   -7.441322|    0.823962|    0.012012|
|         120|   -5.137208|   -7.445209|    0.823961|    0.012013|
|         121|   -5.155377|   -7.448819|    0.823961|    0.012013|
|         122|   -5.171347|   -7.452183|    0.823960|    0.012013|
|         123|   -5.185888|   -7.455332|    0.823960|    0.012014|
|         124|   -5.200234|   -7.458298|    0.823959|    0.012014|
|         125|   -5.215120|   -7.461117|    0.823958|    0.012014|
|         126|   -5.230481|   -7.463824|    0.823958|    0.012014|
|         127|   -5.245670|   -7.466453|    0.823957|    0.012015|
|         128|   -5.259844|   -7.469037|    0.823956|    0.012015|
|         129|   -5.272250|   -7.471607|    0.823956|    0.012015|
|         130|   -5.282387|   -7.474195|    0.823955|    0.012015|
|         131|   -5.290089|   -7.476828|    0.823955|    0.012015|
|         132|   -5.295580|   -7.479527|    0.823955|    0.012016|
|         133|   -5.299444|   -7.482315|    0.823954|    0.012016|
|         134|   -5.302495|   -7.485213|    0.823954|    0.012016|
|         135|   -5.305569|   -7.488236|    0.823954|    0.012016|
|         136|   -5.309330|   -7.491397|    0.823953|    0.012017|
|         137|   -5.314156|   -7.494706|    0.823953|    0.012017|
|         138|   -5.320106|   -7.498171|    0.823953|    0.012017|
|         139|   -5.326942|   -7.501794|    0.823953|    0.012017|
|         140|   -5.334191|   -7.505576|    0.823953|    0.012018|
|         141|   -5.341254|   -7.509514|    0.823953|    0.012018|
|         142|   -5.347538|   -7.513603|    0.823953|    0.012018|
|         143|   -5.352614|   -7.517838|    0.823954|    0.012018|
|         144|   -5.356334|   -7.522208|    0.823954|    0.012019|
|         145|   -5.358871|   -7.526703|    0.823954|    0.012019|
|         146|   -5.360651|   -7.531314|    0.823954|    0.012019|
|         147|   -5.362219|   -7.536028|    0.823955|    0.012019|
|         148|   -5.364092|   -7.540836|    0.823955|    0.012020|
|         149|   -5.366650|   -7.545727|    0.823956|    0.012020|
|         150|   -5.370083|   -7.550691|    0.823956|    0.012020|
|         151|   -5.374392|   -7.555716|    0.823957|    0.012021|
|         152|   -5.379424|   -7.560795|    0.823957|    0.012021|
|         153|   -5.384937|   -7.565917|    0.823958|    0.012021|
|         154|   -5.390662|   -7.571077|    0.823958|    0.012021|
|         155|   -5.396361|   -7.576264|    0.823959|    0.012021|
|         156|   -5.401870|   -7.581470|    0.823960|    0.012022|
|         157|   -5.407116|   -7.586682|    0.823960|    0.012022|
|         158|   -5.412109|   -7.591885|    0.823961|    0.012022|
|         159|   -5.416918|   -7.597065|    0.823962|    0.012022|
|         160|   -5.421642|   -7.602203|    0.823963|    0.012022|
|         161|   -5.426380|   -7.607278|    0.823964|    0.012022|
|         162|   -5.431208|   -7.612265|    0.823965|    0.012023|
|         163|   -5.436173|   -7.617138|    0.823966|    0.012023|
|         164|   -5.441292|   -7.621871|    0.823967|    0.012023|
|         165|   -5.446559|   -7.626438|    0.823969|    0.012023|
|         166|   -5.451955|   -7.630815|    0.823970|    0.012023|
|         167|   -5.457457|   -7.634975|    0.823971|    0.012023|
|         168|   -5.463043|   -7.638895|    0.823973|    0.012023|
|         169|   -5.468701|   -7.642555|    0.823974|    0.012023|
|         170|   -5.474425|   -7.645938|    0.823975|    0.012023|
|         171|   -5.480212|   -7.649027|    0.823977|    0.012023|
|         172|   -5.486064|   -7.651804|    0.823978|    0.012023|
|         173|   -5.491981|   -7.654254|    0.823979|    0.012023|
|         174|   -5.497960|   -7.656363|    0.823980|    0.012023|
|         175|   -5.503995|   -7.658122|    0.823982|    0.012023|
|         176|   -5.510074|   -7.659522|    0.823983|    0.012023|
|         177|   -5.516176|   -7.660564|    0.823984|    0.012023|
|         178|   -5.522280|   -7.661243|    0.823985|    0.012023|
|         179|   -5.528356|   -7.661563|    0.823986|    0.012023|
|         180|   -5.534367|   -7.661531|    0.823987|    0.012023|
|         181|   -5.540275|   -7.661160|    0.823988|    0.012023|
|         182|   -5.546036|   -7.660471|    0.823988|    0.012023|
|         183|   -5.551601|   -7.659490|    0.823989|    0.012023|
|         184|   -5.556921|   -7.658251|    0.823989|    0.012023|
|         185|   -5.561948|   -7.656793|    0.823990|    0.012023|
|         186|   -5.566634|   -7.655154|    0.823990|    0.012023|
|         187|   -5.570937|   -7.653379|    0.823990|    0.012023|
|         188|   -5.574825|   -7.651510|    0.823990|    0.012023|
|         189|   -5.578274|   -7.649590|    0.823990|    0.012023|
|         190|   -5.581271|   -7.647664|    0.823990|    0.012023|
|         191|   -5.583819|   -7.645769|    0.823990|    0.012023|
|         192|   -5.585933|   -7.643944|    0.823989|    0.012022|
|         193|   -5.587643|   -7.642227|    0.823989|    0.012022|
|         194|   -5.588991|   -7.640641|    0.823988|    0.012022|
|         195|   -5.590031|   -7.639209|    0.823988|    0.012022|
|         196|   -5.590828|   -7.637957|    0.823987|    0.012022|
|         197|   -5.591454|   -7.636904|    0.823987|    0.012022|
|         198|   -5.591984|   -7.636061|    0.823986|    0.012022|
|         199|   -5.592499|   -7.635430|    0.823985|    0.012021|
|         200|   -5.593079|   -7.635007|    0.823985|    0.012021|
|         201|   -5.593804|   -7.634787|    0.823984|    0.012022|
+-----------------------------------------------------------------------+
|Fixed CL Mode                           |Value                         |
+-----------------------------------------------------------------------+
|Current CL                              |0.823984                      |
|Target CL                               |0.824                         |
|Previous AOA                            |2.79058                       |
|Changed AoA by                          |7.65076e-05                   |
+-----------------------------------------------------------------------+
+----------------------------------------------------------------+
|  Inner_Iter|    rms[Rho]|     rms[nu]|          CL|          CD|
+----------------------------------------------------------------+
|         202|   -4.308920|   -7.628564|    0.823983|    0.012022|
|         203|   -4.688055|   -7.631702|    0.823982|    0.012022|
|         204|   -4.919736|   -7.632858|    0.823982|    0.012022|
|         205|   -4.993664|   -7.633752|    0.823981|    0.012022|
|         206|   -5.045319|   -7.634626|    0.823980|    0.012022|
|         207|   -5.110680|   -7.635505|    0.823980|    0.012021|
|         208|   -5.188389|   -7.636380|    0.823979|    0.012021|
|         209|   -5.265734|   -7.637229|    0.823978|    0.012021|
|         210|   -5.329146|   -7.638033|    0.823978|    0.012021|
|         211|   -5.374213|   -7.638772|    0.823977|    0.012021|
|         212|   -5.404300|   -7.639441|    0.823977|    0.012021|
|         213|   -5.423193|   -7.640035|    0.823976|    0.012021|
|         214|   -5.433757|   -7.640558|    0.823976|    0.012021|
|         215|   -5.439857|   -7.641011|    0.823976|    0.012020|
|         216|   -5.445995|   -7.641395|    0.823975|    0.012020|
|         217|   -5.455400|   -7.641711|    0.823975|    0.012020|
|         218|   -5.468985|   -7.641962|    0.823975|    0.012020|
|         219|   -5.485668|   -7.642155|    0.823975|    0.012020|
|         220|   -5.503473|   -7.642301|    0.823975|    0.012020|
|         221|   -5.520805|   -7.642413|    0.823975|    0.012020|
|         222|   -5.537181|   -7.642479|    0.823975|    0.012020|
|         223|   -5.553084|   -7.642517|    0.823975|    0.012020|
|         224|   -5.569221|   -7.642558|    0.823975|    0.012020|
|         225|   -5.585878|   -7.642618|    0.823975|    0.012020|
|         226|   -5.602735|   -7.642713|    0.823975|    0.012020|
|         227|   -5.619065|   -7.642846|    0.823975|    0.012020|
|         228|   -5.634068|   -7.643027|    0.823976|    0.012020|
|         229|   -5.647119|   -7.643267|    0.823976|    0.012020|
|         230|   -5.657894|   -7.643571|    0.823976|    0.012020|
|         231|   -5.666402|   -7.643947|    0.823977|    0.012020|
|         232|   -5.672973|   -7.644403|    0.823977|    0.012020|
|         233|   -5.678198|   -7.644946|    0.823978|    0.012020|
|         234|   -5.682800|   -7.645578|    0.823979|    0.012020|
|         235|   -5.687472|   -7.646304|    0.823979|    0.012020|
|         236|   -5.692742|   -7.647133|    0.823980|    0.012020|
|         237|   -5.698882|   -7.648066|    0.823981|    0.012020|
|         238|   -5.705899|   -7.649105|    0.823981|    0.012021|
|         239|   -5.713560|   -7.650252|    0.823982|    0.012021|
|         240|   -5.721457|   -7.651502|    0.823983|    0.012021|
|         241|   -5.729101|   -7.652849|    0.823984|    0.012021|
|         242|   -5.736031|   -7.654293|    0.823985|    0.012021|
|         243|   -5.741935|   -7.655838|    0.823986|    0.012021|
|         244|   -5.746746|   -7.657487|    0.823986|    0.012021|
|         245|   -5.750656|   -7.659247|    0.823987|    0.012021|
|         246|   -5.754057|   -7.661119|    0.823988|    0.012021|
|         247|   -5.757436|   -7.663105|    0.823989|    0.012021|
|         248|   -5.761248|   -7.665203|    0.823990|    0.012022|
|         249|   -5.765828|   -7.667410|    0.823991|    0.012022|
|         250|   -5.771341|   -7.669736|    0.823992|    0.012022|
|         251|   -5.777787|   -7.672189|    0.823993|    0.012022|
|         252|   -5.785028|   -7.674774|    0.823994|    0.012022|
|         253|   -5.792835|   -7.677493|    0.823995|    0.012022|
|         254|   -5.800952|   -7.680348|    0.823996|    0.012022|
|         255|   -5.809144|   -7.683342|    0.823997|    0.012022|
|         256|   -5.817238|   -7.686472|    0.823998|    0.012022|
|         257|   -5.825139|   -7.689736|    0.823999|    0.012022|
|         258|   -5.832834|   -7.693134|    0.824000|    0.012022|
|         259|   -5.840366|   -7.696665|    0.824001|    0.012023|
|         260|   -5.847811|   -7.700329|    0.824002|    0.012023|
|         261|   -5.855250|   -7.704126|    0.824003|    0.012023|
|         262|   -5.862746|   -7.708057|    0.824004|    0.012023|
|         263|   -5.870336|   -7.712122|    0.824005|    0.012023|
|         264|   -5.878030|   -7.716321|    0.824006|    0.012023|
|         265|   -5.885816|   -7.720659|    0.824007|    0.012023|
|         266|   -5.893665|   -7.725136|    0.824008|    0.012023|
|         267|   -5.901546|   -7.729752|    0.824008|    0.012023|
|         268|   -5.909425|   -7.734508|    0.824009|    0.012023|
|         269|   -5.917274|   -7.739404|    0.824010|    0.012023|
|         270|   -5.925070|   -7.744443|    0.824011|    0.012023|
|         271|   -5.932789|   -7.749628|    0.824011|    0.012023|
|         272|   -5.940408|   -7.754971|    0.824012|    0.012023|
|         273|   -5.947896|   -7.760479|    0.824013|    0.012023|
|         274|   -5.955221|   -7.766160|    0.824013|    0.012023|
|         275|   -5.962344|   -7.772020|    0.824014|    0.012023|
|         276|   -5.969222|   -7.778065|    0.824015|    0.012023|
|         277|   -5.975812|   -7.784313|    0.824015|    0.012023|
|         278|   -5.982072|   -7.790767|    0.824016|    0.012023|
|         279|   -5.987965|   -7.797429|    0.824016|    0.012023|
|         280|   -5.993459|   -7.804305|    0.824016|    0.012023|
|         281|   -5.998531|   -7.811398|    0.824017|    0.012023|
|         282|   -6.003169|   -7.818704|    0.824017|    0.012023|
|         283|   -6.007369|   -7.826224|    0.824017|    0.012023|
|         284|   -6.011138|   -7.833953|    0.824018|    0.012023|
|         285|   -6.014491|   -7.841884|    0.824018|    0.012022|
|         286|   -6.017452|   -7.850009|    0.824018|    0.012022|
|         287|   -6.020050|   -7.858329|    0.824018|    0.012022|
|         288|   -6.022320|   -7.866835|    0.824018|    0.012022|
|         289|   -6.024298|   -7.875510|    0.824018|    0.012022|
|         290|   -6.026023|   -7.884340|    0.824019|    0.012022|
|         291|   -6.027535|   -7.893308|    0.824019|    0.012022|
|         292|   -6.028868|   -7.902395|    0.824019|    0.012022|
|         293|   -6.030058|   -7.911587|    0.824019|    0.012022|
|         294|   -6.031136|   -7.920865|    0.824018|    0.012022|
|         295|   -6.032128|   -7.930212|    0.824018|    0.012022|
|         296|   -6.033058|   -7.939609|    0.824018|    0.012022|
|         297|   -6.033945|   -7.949040|    0.824018|    0.012021|
|         298|   -6.034806|   -7.958494|    0.824018|    0.012021|
|         299|   -6.035652|   -7.967953|    0.824018|    0.012021|
|         300|   -6.036494|   -7.977398|    0.824018|    0.012021|
|         301|   -6.037341|   -7.986804|    0.824017|    0.012020|
+-----------------------------------------------------------------------+
|Fixed CL Mode                           |Value                         |
+-----------------------------------------------------------------------+
|Current CL                              |0.824017                      |
|Target CL                               |0.824                         |
|Previous AOA                            |2.79066                       |
|Changed AoA by                          |-8.76975e-05                  |
+-----------------------------------------------------------------------+
+----------------------------------------------------------------+
|  Inner_Iter|    rms[Rho]|     rms[nu]|          CL|          CD|
+----------------------------------------------------------------+
|         302|   -4.250359|   -7.958107|    0.824017|    0.012020|
|         303|   -4.635404|   -7.985414|    0.824017|    0.012020|
|         304|   -4.881750|   -7.999838|    0.824017|    0.012019|
|         305|   -4.962082|   -8.011602|    0.824016|    0.012019|
|         306|   -5.016196|   -8.022352|    0.824016|    0.012019|
|         307|   -5.086052|   -8.032444|    0.824016|    0.012019|
|         308|   -5.172181|   -8.041952|    0.824015|    0.012019|
|         309|   -5.261342|   -8.050897|    0.824015|    0.012019|
|         310|   -5.336369|   -8.059276|    0.824015|    0.012019|
|         311|   -5.388948|   -8.067052|    0.824015|    0.012019|
|         312|   -5.421619|   -8.074202|    0.824014|    0.012019|
|         313|   -5.439286|   -8.080748|    0.824014|    0.012019|
|         314|   -5.446454|   -8.086756|    0.824014|    0.012019|
|         315|   -5.448928|   -8.092275|    0.824014|    0.012019|
|         316|   -5.452782|   -8.097317|    0.824014|    0.012018|
|         317|   -5.461908|   -8.101861|    0.824013|    0.012018|
|         318|   -5.477017|   -8.105890|    0.824013|    0.012018|
|         319|   -5.496202|   -8.109408|    0.824013|    0.012018|
|         320|   -5.516355|   -8.112447|    0.824013|    0.012018|
|         321|   -5.534908|   -8.115051|    0.824013|    0.012018|
|         322|   -5.551033|   -8.117257|    0.824013|    0.012018|
|         323|   -5.565546|   -8.119099|    0.824013|    0.012018|
|         324|   -5.579807|   -8.120614|    0.824013|    0.012018|
|         325|   -5.594704|   -8.121847|    0.824013|    0.012018|
|         326|   -5.610311|   -8.122858|    0.824013|    0.012018|
|         327|   -5.626109|   -8.123710|    0.824013|    0.012018|
|         328|   -5.641344|   -8.124485|    0.824013|    0.012018|
|         329|   -5.655307|   -8.125255|    0.824014|    0.012018|
|         330|   -5.667468|   -8.126085|    0.824014|    0.012018|
|         331|   -5.677571|   -8.127032|    0.824014|    0.012018|
|         332|   -5.685720|   -8.128148|    0.824014|    0.012018|
|         333|   -5.692405|   -8.129466|    0.824015|    0.012018|
|         334|   -5.698409|   -8.131011|    0.824015|    0.012018|
|         335|   -5.704607|   -8.132791|    0.824015|    0.012018|
|         336|   -5.711760|   -8.134800|    0.824015|    0.012018|
|         337|   -5.720362|   -8.137019|    0.824016|    0.012018|
|         338|   -5.730573|   -8.139419|    0.824016|    0.012018|
|         339|   -5.742209|   -8.141963|    0.824016|    0.012018|
|         340|   -5.754773|   -8.144609|    0.824017|    0.012018|
|         341|   -5.767533|   -8.147310|    0.824017|    0.012018|
|         342|   -5.779671|   -8.150018|    0.824017|    0.012018|
|         343|   -5.790473|   -8.152696|    0.824017|    0.012019|
|         344|   -5.799536|   -8.155298|    0.824017|    0.012019|
|         345|   -5.806883|   -8.157788|    0.824018|    0.012019|
|         346|   -5.812941|   -8.160135|    0.824018|    0.012019|
|         347|   -5.818382|   -8.162314|    0.824018|    0.012019|
|         348|   -5.823912|   -8.164306|    0.824018|    0.012019|
|         349|   -5.830094|   -8.166102|    0.824018|    0.012019|
|         350|   -5.837244|   -8.167700|    0.824018|    0.012019|
|         351|   -5.845408|   -8.169106|    0.824018|    0.012019|
|         352|   -5.854398|   -8.170339|    0.824018|    0.012019|
|         353|   -5.863865|   -8.171421|    0.824018|    0.012019|
|         354|   -5.873397|   -8.172380|    0.824018|    0.012020|
|         355|   -5.882612|   -8.173250|    0.824018|    0.012020|
|         356|   -5.891234|   -8.174070|    0.824017|    0.012020|
|         357|   -5.899137|   -8.174884|    0.824017|    0.012020|
|         358|   -5.906346|   -8.175734|    0.824017|    0.012020|
|         359|   -5.912999|   -8.176667|    0.824016|    0.012020|
|         360|   -5.919297|   -8.177720|    0.824016|    0.012020|
|         361|   -5.925444|   -8.178926|    0.824015|    0.012020|
|         362|   -5.931610|   -8.180314|    0.824015|    0.012020|
|         363|   -5.937914|   -8.181906|    0.824014|    0.012020|
|         364|   -5.944421|   -8.183717|    0.824014|    0.012020|
|         365|   -5.951150|   -8.185755|    0.824013|    0.012020|
|         366|   -5.958094|   -8.188018|    0.824013|    0.012020|
|         367|   -5.965232|   -8.190501|    0.824012|    0.012020|
|         368|   -5.972544|   -8.193186|    0.824011|    0.012020|
|         369|   -5.980013|   -8.196045|    0.824011|    0.012020|
|         370|   -5.987627|   -8.199039|    0.824010|    0.012020|
|         371|   -5.995377|   -8.202123|    0.824010|    0.012020|
|         372|   -6.003249|   -8.205248|    0.824009|    0.012020|
|         373|   -6.011220|   -8.208361|    0.824008|    0.012020|
|         374|   -6.019255|   -8.211407|    0.824008|    0.012020|
|         375|   -6.027309|   -8.214333|    0.824007|    0.012020|
|         376|   -6.035321|   -8.217088|    0.824007|    0.012020|
|         377|   -6.043223|   -8.219627|    0.824006|    0.012020|
|         378|   -6.050942|   -8.221918|    0.824006|    0.012020|
|         379|   -6.058399|   -8.223935|    0.824005|    0.012020|
|         380|   -6.065515|   -8.225668|    0.824005|    0.012020|
|         381|   -6.072217|   -8.227121|    0.824005|    0.012020|
|         382|   -6.078436|   -8.228309|    0.824005|    0.012020|
|         383|   -6.084114|   -8.229258|    0.824004|    0.012020|
|         384|   -6.089199|   -8.230008|    0.824004|    0.012020|
|         385|   -6.093657|   -8.230608|    0.824004|    0.012020|
|         386|   -6.097465|   -8.231113|    0.824004|    0.012020|
|         387|   -6.100616|   -8.231584|    0.824004|    0.012020|
|         388|   -6.103119|   -8.232084|    0.824004|    0.012020|
|         389|   -6.105000|   -8.232677|    0.824004|    0.012020|
|         390|   -6.106295|   -8.233424|    0.824004|    0.012020|
|         391|   -6.107054|   -8.234383|    0.824005|    0.012020|
|         392|   -6.107337|   -8.235608|    0.824005|    0.012020|
|         393|   -6.107207|   -8.237145|    0.824005|    0.012020|
|         394|   -6.106733|   -8.239034|    0.824005|    0.012020|
|         395|   -6.105984|   -8.241303|    0.824006|    0.012020|
|         396|   -6.105027|   -8.243975|    0.824006|    0.012020|
|         397|   -6.103927|   -8.247063|    0.824006|    0.012020|
|         398|   -6.102743|   -8.250570|    0.824007|    0.012020|
|         399|   -6.101530|   -8.254495|    0.824007|    0.012020|
|         400|   -6.100336|   -8.258827|    0.824008|    0.012020|
|         401|   -6.099202|   -8.263553|    0.824008|    0.012019|
+-----------------------------------------------------------------------+
|Fixed CL Mode                           |Value                         |
+-----------------------------------------------------------------------+
|Current CL                              |0.824008                      |
|Target CL                               |0.824                         |
|Previous AOA                            |2.79057                       |
|Changed AoA by                          |-3.76719e-05                  |
+-----------------------------------------------------------------------+
+----------------------------------------------------------------+
|  Inner_Iter|    rms[Rho]|     rms[nu]|          CL|          CD|
+----------------------------------------------------------------+
|         402|   -4.617058|   -8.242412|    0.824008|    0.012019|
|         403|   -4.999383|   -8.260480|    0.824009|    0.012019|
|         404|   -5.237986|   -8.270097|    0.824009|    0.012019|
|         405|   -5.314051|   -8.278231|    0.824010|    0.012019|
|         406|   -5.366155|   -8.285931|    0.824010|    0.012019|
|         407|   -5.433220|   -8.293433|    0.824011|    0.012018|
|         408|   -5.514815|   -8.300823|    0.824011|    0.012018|
|         409|   -5.598165|   -8.308151|    0.824012|    0.012018|
|         410|   -5.668244|   -8.315447|    0.824012|    0.012018|
|         411|   -5.718761|   -8.322710|    0.824013|    0.012018|
|         412|   -5.752266|   -8.329939|    0.824013|    0.012018|
|         413|   -5.772524|   -8.337139|    0.824014|    0.012018|
|         414|   -5.782747|   -8.344351|    0.824014|    0.012018|
|         415|   -5.787596|   -8.351608|    0.824015|    0.012018|
|         416|   -5.792478|   -8.358921|    0.824015|    0.012018|
|         417|   -5.801161|   -8.366283|    0.824015|    0.012018|
|         418|   -5.814627|   -8.373687|    0.824016|    0.012018|
|         419|   -5.831516|   -8.381139|    0.824016|    0.012018|
|         420|   -5.849449|   -8.388655|    0.824017|    0.012018|
|         421|   -5.866534|   -8.396249|    0.824017|    0.012018|
|         422|   -5.882263|   -8.403921|    0.824017|    0.012018|
|         423|   -5.897318|   -8.411659|    0.824018|    0.012017|
|         424|   -5.912656|   -8.419435|    0.824018|    0.012017|
|         425|   -5.928721|   -8.427222|    0.824018|    0.012017|
|         426|   -5.945221|   -8.434986|    0.824018|    0.012017|
|         427|   -5.961359|   -8.442701|    0.824019|    0.012017|
|         428|   -5.976230|   -8.450337|    0.824019|    0.012017|
|         429|   -5.989112|   -8.457867|    0.824019|    0.012017|
|         430|   -5.999631|   -8.465278|    0.824019|    0.012017|
|         431|   -6.007805|   -8.472552|    0.824019|    0.012017|
|         432|   -6.014039|   -8.479671|    0.824020|    0.012017|
|         433|   -6.019043|   -8.486615|    0.824020|    0.012017|
|         434|   -6.023675|   -8.493361|    0.824020|    0.012017|
|         435|   -6.028745|   -8.499872|    0.824020|    0.012017|
|         436|   -6.034854|   -8.506117|    0.824020|    0.012017|
|         437|   -6.042300|   -8.512064|    0.824020|    0.012017|
|         438|   -6.051054|   -8.517689|    0.824020|    0.012017|
|         439|   -6.060796|   -8.522962|    0.824020|    0.012017|
|         440|   -6.070965|   -8.527863|    0.824020|    0.012017|
|         441|   -6.080869|   -8.532375|    0.824020|    0.012017|
|         442|   -6.089824|   -8.536490|    0.824020|    0.012017|
|         443|   -6.097317|   -8.540203|    0.824020|    0.012017|
|         444|   -6.103144|   -8.543519|    0.824020|    0.012017|
|         445|   -6.107459|   -8.546446|    0.824020|    0.012017|
|         446|   -6.110708|   -8.548996|    0.824020|    0.012017|
|         447|   -6.113477|   -8.551184|    0.824020|    0.012017|
|         448|   -6.116333|   -8.553019|    0.824020|    0.012017|
|         449|   -6.119694|   -8.554512|    0.824019|    0.012017|
|         450|   -6.123770|   -8.555677|    0.824019|    0.012017|
|         451|   -6.128566|   -8.556528|    0.824019|    0.012017|
|         452|   -6.133920|   -8.557077|    0.824019|    0.012018|
|         453|   -6.139572|   -8.557347|    0.824019|    0.012018|
|         454|   -6.145240|   -8.557336|    0.824019|    0.012018|
|         455|   -6.150684|   -8.557052|    0.824019|    0.012018|
|         456|   -6.155753|   -8.556502|    0.824018|    0.012018|
|         457|   -6.160396|   -8.555695|    0.824018|    0.012018|
|         458|   -6.164659|   -8.554643|    0.824018|    0.012018|
|         459|   -6.168649|   -8.553356|    0.824018|    0.012018|
|         460|   -6.172500|   -8.551850|    0.824018|    0.012018|
|         461|   -6.176339|   -8.550141|    0.824017|    0.012018|
|         462|   -6.180267|   -8.548252|    0.824017|    0.012018|
|         463|   -6.184345|   -8.546210|    0.824017|    0.012018|
|         464|   -6.188604|   -8.544048|    0.824017|    0.012018|
|         465|   -6.193045|   -8.541804|    0.824016|    0.012018|
|         466|   -6.197659|   -8.539521|    0.824016|    0.012018|
|         467|   -6.202432|   -8.537249|    0.824016|    0.012018|
|         468|   -6.207356|   -8.535037|    0.824016|    0.012018|
|         469|   -6.212427|   -8.532940|    0.824015|    0.012018|
|         470|   -6.217651|   -8.531012|    0.824015|    0.012018|
|         471|   -6.223038|   -8.529304|    0.824015|    0.012019|
|         472|   -6.228600|   -8.527866|    0.824015|    0.012019|
|         473|   -6.234347|   -8.526742|    0.824014|    0.012019|
|         474|   -6.240288|   -8.525967|    0.824014|    0.012019|
|         475|   -6.246429|   -8.525571|    0.824014|    0.012019|
|         476|   -6.252770|   -8.525571|    0.824013|    0.012019|
|         477|   -6.259310|   -8.525972|    0.824013|    0.012019|
|         478|   -6.266047|   -8.526767|    0.824013|    0.012019|
|         479|   -6.272978|   -8.527934|    0.824013|    0.012019|
|         480|   -6.280098|   -8.529438|    0.824012|    0.012019|
|         481|   -6.287405|   -8.531233|    0.824012|    0.012019|
|         482|   -6.294896|   -8.533257|    0.824012|    0.012019|
|         483|   -6.302565|   -8.535439|    0.824012|    0.012019|
|         484|   -6.310409|   -8.537696|    0.824011|    0.012019|
|         485|   -6.318422|   -8.539943|    0.824011|    0.012019|
|         486|   -6.326598|   -8.542088|    0.824011|    0.012019|
|         487|   -6.334926|   -8.544043|    0.824011|    0.012019|
|         488|   -6.343397|   -8.545726|    0.824011|    0.012019|
|         489|   -6.351997|   -8.547068|    0.824010|    0.012019|
|         490|   -6.360710|   -8.548014|    0.824010|    0.012019|
|         491|   -6.369517|   -8.548530|    0.824010|    0.012019|
|         492|   -6.378396|   -8.548603|    0.824010|    0.012019|
|         493|   -6.387321|   -8.548243|    0.824010|    0.012019|
|         494|   -6.396262|   -8.547484|    0.824010|    0.012019|
|         495|   -6.405187|   -8.546377|    0.824010|    0.012019|
|         496|   -6.414059|   -8.544991|    0.824010|    0.012019|
|         497|   -6.422838|   -8.543402|    0.824010|    0.012019|
|         498|   -6.431482|   -8.541698|    0.824010|    0.012019|
|         499|   -6.439947|   -8.539964|    0.824010|    0.012019|
|         500|   -6.448186|   -8.538282|    0.824010|    0.012019|
|         501|   -6.456156|   -8.536728|    0.824010|    0.012018|
+-----------------------------------------------------------------------+
|Fixed CL Mode                           |Value                         |
+-----------------------------------------------------------------------+
|Current CL                              |0.82401                       |
|Target CL                               |0.824                         |
|Previous AOA                            |2.79053                       |
|Changed AoA by                          |-4.97938e-05                  |
+-----------------------------------------------------------------------+
+----------------------------------------------------------------+
|  Inner_Iter|    rms[Rho]|     rms[nu]|          CL|          CD|
+----------------------------------------------------------------+
|         502|   -4.496173|   -8.413124|    0.824010|    0.012018|
|         503|   -4.879956|   -8.466020|    0.824010|    0.012018|
|         504|   -5.121966|   -8.483578|    0.824010|    0.012018|
|         505|   -5.199758|   -8.493471|    0.824010|    0.012018|
|         506|   -5.253160|   -8.500733|    0.824010|    0.012018|
|         507|   -5.322665|   -8.506603|    0.824010|    0.012017|
|         508|   -5.408761|   -8.511505|    0.824011|    0.012017|
|         509|   -5.499109|   -8.515692|    0.824011|    0.012017|
|         510|   -5.577725|   -8.519313|    0.824011|    0.012017|
|         511|   -5.636276|   -8.522398|    0.824011|    0.012017|
|         512|   -5.675871|   -8.524968|    0.824011|    0.012017|
|         513|   -5.699719|   -8.527162|    0.824011|    0.012017|
|         514|   -5.711194|   -8.529152|    0.824011|    0.012017|
|         515|   -5.716027|   -8.531070|    0.824011|    0.012017|
|         516|   -5.721028|   -8.532929|    0.824011|    0.012017|
|         517|   -5.730914|   -8.534676|    0.824011|    0.012017|
|         518|   -5.746930|   -8.536287|    0.824012|    0.012017|
|         519|   -5.767407|   -8.537776|    0.824012|    0.012017|
|         520|   -5.789281|   -8.539190|    0.824012|    0.012017|
|         521|   -5.809958|   -8.540572|    0.824012|    0.012017|
|         522|   -5.828611|   -8.541933|    0.824012|    0.012017|
|         523|   -5.846108|   -8.543251|    0.824012|    0.012017|
|         524|   -5.863840|   -8.544477|    0.824012|    0.012017|
|         525|   -5.882612|   -8.545569|    0.824012|    0.012017|
|         526|   -5.902267|   -8.546505|    0.824012|    0.012017|
|         527|   -5.921922|   -8.547280|    0.824012|    0.012017|
|         528|   -5.940433|   -8.547884|    0.824012|    0.012017|
|         529|   -5.956777|   -8.548372|    0.824012|    0.012017|
|         530|   -5.970277|   -8.548775|    0.824012|    0.012017|
|         531|   -5.980737|   -8.549122|    0.824012|    0.012017|
|         532|   -5.988513|   -8.549438|    0.824012|    0.012017|
|         533|   -5.994464|   -8.549745|    0.824012|    0.012017|
|         534|   -5.999761|   -8.550056|    0.824012|    0.012017|
|         535|   -6.005590|   -8.550365|    0.824012|    0.012017|
|         536|   -6.012898|   -8.550658|    0.824012|    0.012017|
|         537|   -6.022240|   -8.550912|    0.824012|    0.012017|
|         538|   -6.033727|   -8.551097|    0.824012|    0.012017|
|         539|   -6.047032|   -8.551183|    0.824012|    0.012017|
|         540|   -6.061432|   -8.551138|    0.824012|    0.012017|
|         541|   -6.075905|   -8.550933|    0.824012|    0.012017|
|         542|   -6.089323|   -8.550546|    0.824012|    0.012017|
|         543|   -6.100722|   -8.549962|    0.824012|    0.012017|
|         544|   -6.109601|   -8.549171|    0.824012|    0.012017|
|         545|   -6.116082|   -8.548169|    0.824012|    0.012017|
|         546|   -6.120848|   -8.546956|    0.824012|    0.012017|
|         547|   -6.124893|   -8.545534|    0.824011|    0.012017|
|         548|   -6.129221|   -8.543911|    0.824011|    0.012017|
|         549|   -6.134601|   -8.542089|    0.824011|    0.012017|
|         550|   -6.141462|   -8.540071|    0.824011|    0.012017|
|         551|   -6.149874|   -8.537861|    0.824011|    0.012017|
|         552|   -6.159605|   -8.535472|    0.824011|    0.012017|
|         553|   -6.170222|   -8.532915|    0.824010|    0.012017|
|         554|   -6.181202|   -8.530198|    0.824010|    0.012017|
|         555|   -6.192054|   -8.527334|    0.824010|    0.012017|
|         556|   -6.202417|   -8.524341|    0.824010|    0.012017|
|         557|   -6.212118|   -8.521247|    0.824010|    0.012017|
|         558|   -6.221181|   -8.518080|    0.824009|    0.012017|
|         559|   -6.229779|   -8.514878|    0.824009|    0.012017|
|         560|   -6.238166|   -8.511680|    0.824009|    0.012017|
|         561|   -6.246609|   -8.508533|    0.824008|    0.012017|
|         562|   -6.255330|   -8.505483|    0.824008|    0.012017|
|         563|   -6.264479|   -8.502580|    0.824008|    0.012017|
|         564|   -6.274133|   -8.499875|    0.824007|    0.012017|
|         565|   -6.284309|   -8.497418|    0.824007|    0.012017|
|         566|   -6.294984|   -8.495257|    0.824007|    0.012017|
|         567|   -6.306120|   -8.493435|    0.824006|    0.012017|
|         568|   -6.317681|   -8.491992|    0.824006|    0.012017|
|         569|   -6.329638|   -8.490958|    0.824006|    0.012017|
|         570|   -6.341977|   -8.490356|    0.824005|    0.012018|
|         571|   -6.354693|   -8.490199|    0.824005|    0.012018|
|         572|   -6.367778|   -8.490488|    0.824004|    0.012018|
|         573|   -6.381217|   -8.491213|    0.824004|    0.012018|
|         574|   -6.394980|   -8.492349|    0.824004|    0.012018|
|         575|   -6.409017|   -8.493860|    0.824003|    0.012018|
|         576|   -6.423256|   -8.495697|    0.824003|    0.012018|
|         577|   -6.437607|   -8.497797|    0.824003|    0.012018|
|         578|   -6.451959|   -8.500087|    0.824002|    0.012018|
|         579|   -6.466192|   -8.502485|    0.824002|    0.012018|
|         580|   -6.480176|   -8.504902|    0.824002|    0.012018|
|         581|   -6.493776|   -8.507247|    0.824002|    0.012018|
|         582|   -6.506860|   -8.509429|    0.824001|    0.012018|
|         583|   -6.519301|   -8.511364|    0.824001|    0.012018|
|         584|   -6.530984|   -8.512976|    0.824001|    0.012018|
|         585|   -6.541812|   -8.514205|    0.824001|    0.012018|
|         586|   -6.551709|   -8.515008|    0.824001|    0.012018|
|         587|   -6.560628|   -8.515364|    0.824001|    0.012018|
|         588|   -6.568550|   -8.515271|    0.824001|    0.012018|
|         589|   -6.575487|   -8.514751|    0.824001|    0.012018|
|         590|   -6.581477|   -8.513843|    0.824001|    0.012018|
|         591|   -6.586586|   -8.512605|    0.824001|    0.012018|
|         592|   -6.590894|   -8.511107|    0.824001|    0.012018|
|         593|   -6.594496|   -8.509425|    0.824001|    0.012018|
|         594|   -6.597489|   -8.507641|    0.824001|    0.012018|
|         595|   -6.599971|   -8.505837|    0.824001|    0.012018|
|         596|   -6.602034|   -8.504088|    0.824001|    0.012018|
|         597|   -6.603759|   -8.502464|    0.824002|    0.012018|
|         598|   -6.605215|   -8.501022|    0.824002|    0.012018|
|         599|   -6.606459|   -8.499811|    0.824002|    0.012018|
|         600|   -6.607534|   -8.498865|    0.824002|    0.012018|
|         601|   -6.608470|   -8.498203|    0.824002|    0.012018|
+-----------------------------------------------------------------------+
|Fixed CL Mode                           |Value                         |
+-----------------------------------------------------------------------+
|Current CL                              |0.824002                      |
|Target CL                               |0.824                         |
|Previous AOA                            |2.79048                       |
|Changed AoA by                          |-1.09194e-05                  |
+-----------------------------------------------------------------------+
+----------------------------------------------------------------+
|  Inner_Iter|    rms[Rho]|     rms[nu]|          CL|          CD|
+----------------------------------------------------------------+
|         602|   -5.154967|   -8.491037|    0.824003|    0.012018|
|         603|   -5.536127|   -8.494306|    0.824003|    0.012018|
|         604|   -5.769445|   -8.495518|    0.824003|    0.012018|
|         605|   -5.841391|   -8.496524|    0.824003|    0.012018|
|         606|   -5.891509|   -8.497565|    0.824004|    0.012018|
|         607|   -5.957112|   -8.498662|    0.824004|    0.012018|
|         608|   -6.037541|   -8.499793|    0.824004|    0.012018|
|         609|   -6.120908|   -8.500927|    0.824005|    0.012018|
|         610|   -6.193417|   -8.502029|    0.824005|    0.012018|
|         611|   -6.248782|   -8.503057|    0.824005|    0.012018|
|         612|   -6.288164|   -8.503977|    0.824005|    0.012018|
|         613|   -6.313693|   -8.504759|    0.824006|    0.012018|
|         614|   -6.327431|   -8.505387|    0.824006|    0.012018|
|         615|   -6.333740|   -8.505850|    0.824006|    0.012018|
|         616|   -6.338451|   -8.506144|    0.824006|    0.012018|
|         617|   -6.345933|   -8.506272|    0.824007|    0.012018|
|         618|   -6.357616|   -8.506248|    0.824007|    0.012018|
|         619|   -6.372450|   -8.506097|    0.824007|    0.012017|
|         620|   -6.388330|   -8.505855|    0.824007|    0.012017|
|         621|   -6.403615|   -8.505560|    0.824007|    0.012017|
|         622|   -6.417947|   -8.505255|    0.824007|    0.012017|
|         623|   -6.431981|   -8.504983|    0.824008|    0.012017|
|         624|   -6.446487|   -8.504785|    0.824008|    0.012017|
|         625|   -6.461637|   -8.504701|    0.824008|    0.012017|
|         626|   -6.476859|   -8.504772|    0.824008|    0.012017|
|         627|   -6.491153|   -8.505032|    0.824008|    0.012017|
|         628|   -6.503546|   -8.505513|    0.824008|    0.012017|
|         629|   -6.513425|   -8.506241|    0.824008|    0.012017|
|         630|   -6.520675|   -8.507236|    0.824008|    0.012017|
|         631|   -6.525639|   -8.508511|    0.824008|    0.012017|
|         632|   -6.529004|   -8.510070|    0.824008|    0.012017|
|         633|   -6.531638|   -8.511912|    0.824008|    0.012017|
|         634|   -6.534411|   -8.514029|    0.824008|    0.012017|
|         635|   -6.538028|   -8.516402|    0.824008|    0.012017|
|         636|   -6.542920|   -8.519011|    0.824008|    0.012017|
|         637|   -6.549201|   -8.521827|    0.824008|    0.012017|
|         638|   -6.556680|   -8.524818|    0.824008|    0.012017|
|         639|   -6.564909|   -8.527949|    0.824008|    0.012017|
|         640|   -6.573268|   -8.531186|    0.824008|    0.012017|
|         641|   -6.581070|   -8.534494|    0.824008|    0.012017|
|         642|   -6.587694|   -8.537838|    0.824008|    0.012017|
|         643|   -6.592729|   -8.541189|    0.824008|    0.012017|
|         644|   -6.596070|   -8.544517|    0.824008|    0.012017|
|         645|   -6.597923|   -8.547801|    0.824008|    0.012017|
|         646|   -6.598729|   -8.551021|    0.824008|    0.012017|
|         647|   -6.599015|   -8.554161|    0.824008|    0.012017|
|         648|   -6.599262|   -8.557212|    0.824008|    0.012017|
|         649|   -6.599806|   -8.560170|    0.824008|    0.012017|
|         650|   -6.600799|   -8.563030|    0.824008|    0.012017|
|         651|   -6.602225|   -8.565794|    0.824007|    0.012017|
|         652|   -6.603945|   -8.568464|    0.824007|    0.012017|
|         653|   -6.605757|   -8.571038|    0.824007|    0.012017|
|         654|   -6.607460|   -8.573517|    0.824007|    0.012017|
|         655|   -6.608901|   -8.575900|    0.824007|    0.012017|
|         656|   -6.610001|   -8.578187|    0.824007|    0.012017|
|         657|   -6.610764|   -8.580373|    0.824007|    0.012017|
|         658|   -6.611256|   -8.582452|    0.824007|    0.012017|
|         659|   -6.611581|   -8.584417|    0.824007|    0.012017|
|         660|   -6.611855|   -8.586257|    0.824007|    0.012017|
|         661|   -6.612181|   -8.587962|    0.824007|    0.012017|
|         662|   -6.612638|   -8.589522|    0.824007|    0.012017|
|         663|   -6.613276|   -8.590929|    0.824007|    0.012017|
|         664|   -6.614123|   -8.592176|    0.824007|    0.012017|
|         665|   -6.615186|   -8.593261|    0.824007|    0.012017|
|         666|   -6.616463|   -8.594186|    0.824007|    0.012017|
|         667|   -6.617950|   -8.594958|    0.824007|    0.012017|
|         668|   -6.619642|   -8.595592|    0.824007|    0.012017|
|         669|   -6.621538|   -8.596105|    0.824006|    0.012017|
|         670|   -6.623636|   -8.596521|    0.824006|    0.012017|
|         671|   -6.625937|   -8.596868|    0.824006|    0.012018|
|         672|   -6.628440|   -8.597179|    0.824006|    0.012018|
|         673|   -6.631139|   -8.597486|    0.824006|    0.012018|
|         674|   -6.634026|   -8.597823|    0.824006|    0.012018|
|         675|   -6.637089|   -8.598226|    0.824006|    0.012018|
|         676|   -6.640312|   -8.598723|    0.824006|    0.012018|
|         677|   -6.643676|   -8.599343|    0.824006|    0.012018|
|         678|   -6.647162|   -8.600109|    0.824006|    0.012018|
|         679|   -6.650749|   -8.601037|    0.824006|    0.012018|
|         680|   -6.654418|   -8.602136|    0.824006|    0.012018|
|         681|   -6.658151|   -8.603411|    0.824006|    0.012018|
|         682|   -6.661929|   -8.604856|    0.824006|    0.012018|
|         683|   -6.665739|   -8.606460|    0.824005|    0.012018|
|         684|   -6.669569|   -8.608203|    0.824005|    0.012018|
|         685|   -6.673407|   -8.610062|    0.824005|    0.012018|
|         686|   -6.677249|   -8.612005|    0.824005|    0.012018|
|         687|   -6.681089|   -8.613998|    0.824005|    0.012018|
|         688|   -6.684927|   -8.616005|    0.824005|    0.012018|
|         689|   -6.688765|   -8.617988|    0.824005|    0.012018|
|         690|   -6.692607|   -8.619910|    0.824005|    0.012018|
|         691|   -6.696459|   -8.621737|    0.824005|    0.012018|
|         692|   -6.700330|   -8.623439|    0.824005|    0.012018|
|         693|   -6.704230|   -8.624992|    0.824005|    0.012018|
|         694|   -6.708168|   -8.626378|    0.824005|    0.012018|
|         695|   -6.712155|   -8.627588|    0.824005|    0.012018|
|         696|   -6.716202|   -8.628618|    0.824005|    0.012018|
|         697|   -6.720316|   -8.629474|    0.824005|    0.012018|
|         698|   -6.724506|   -8.630168|    0.824005|    0.012018|
|         699|   -6.728778|   -8.630718|    0.824005|    0.012018|
|         700|   -6.733136|   -8.631147|    0.824005|    0.012018|
|         701|   -6.737579|   -8.631479|    0.824005|    0.012018|
+-----------------------------------------------------------------------+
|Fixed CL Mode                           |Value                         |
+-----------------------------------------------------------------------+
|Current CL                              |0.824005                      |
|Target CL                               |0.824                         |
|Previous AOA                            |2.79047                       |
|Changed AoA by                          |-2.44666e-05                  |
+-----------------------------------------------------------------------+
+----------------------------------------------------------------+
|  Inner_Iter|    rms[Rho]|     rms[nu]|          CL|          CD|
+----------------------------------------------------------------+
|         702|   -4.804833|   -8.577604|    0.824005|    0.012018|
|         703|   -5.188997|   -8.603660|    0.824005|    0.012018|
|         704|   -5.431708|   -8.611840|    0.824005|    0.012018|
|         705|   -5.509542|   -8.616416|    0.824005|    0.012018|
|         706|   -5.562791|   -8.619753|    0.824005|    0.012018|
|         707|   -5.632232|   -8.622410|    0.824005|    0.012018|
|         708|   -5.718373|   -8.624578|    0.824005|    0.012018|
|         709|   -5.808820|   -8.626374|    0.824005|    0.012018|
|         710|   -5.887488|   -8.627875|    0.824005|    0.012018|
|         711|   -5.945962|   -8.629113|    0.824005|    0.012018|
|         712|   -5.985351|   -8.630121|    0.824005|    0.012018|
|         713|   -6.008912|   -8.630977|    0.824005|    0.012018|
|         714|   -6.020097|   -8.631783|    0.824005|    0.012018|
|         715|   -6.024701|   -8.632603|    0.824005|    0.012018|
|         716|   -6.029557|   -8.633460|    0.824005|    0.012018|
|         717|   -6.039366|   -8.634349|    0.824005|    0.012018|
|         718|   -6.055337|   -8.635262|    0.824006|    0.012018|
|         719|   -6.075745|   -8.636208|    0.824006|    0.012018|
|         720|   -6.097462|   -8.637204|    0.824006|    0.012018|
|         721|   -6.117826|   -8.638267|    0.824006|    0.012018|
|         722|   -6.135967|   -8.639395|    0.824006|    0.012018|
|         723|   -6.152732|   -8.640573|    0.824006|    0.012018|
|         724|   -6.169515|   -8.641782|    0.824006|    0.012018|
|         725|   -6.187134|   -8.643003|    0.824006|    0.012018|
|         726|   -6.205461|   -8.644224|    0.824006|    0.012018|
|         727|   -6.223672|   -8.645443|    0.824006|    0.012018|
|         728|   -6.240703|   -8.646661|    0.824006|    0.012018|
|         729|   -6.255626|   -8.647887|    0.824006|    0.012018|
|         730|   -6.267851|   -8.649123|    0.824006|    0.012018|
|         731|   -6.277241|   -8.650382|    0.824006|    0.012018|
|         732|   -6.284160|   -8.651685|    0.824006|    0.012018|
|         733|   -6.289436|   -8.653032|    0.824006|    0.012018|
|         734|   -6.294170|   -8.654425|    0.824006|    0.012018|
|         735|   -6.299475|   -8.655863|    0.824006|    0.012018|
|         736|   -6.306235|   -8.657341|    0.824006|    0.012018|
|         737|   -6.314972|   -8.658851|    0.824006|    0.012018|
|         738|   -6.325790|   -8.660385|    0.824006|    0.012018|
|         739|   -6.338388|   -8.661931|    0.824006|    0.012018|
|         740|   -6.352106|   -8.663479|    0.824006|    0.012018|
|         741|   -6.366015|   -8.665021|    0.824006|    0.012018|
|         742|   -6.379093|   -8.666549|    0.824006|    0.012018|
|         743|   -6.390469|   -8.668059|    0.824006|    0.012018|
|         744|   -6.399684|   -8.669549|    0.824006|    0.012018|
|         745|   -6.406830|   -8.671021|    0.824006|    0.012018|
|         746|   -6.412510|   -8.672476|    0.824006|    0.012018|
|         747|   -6.417617|   -8.673918|    0.824006|    0.012018|
|         748|   -6.423066|   -8.675351|    0.824006|    0.012018|
|         749|   -6.429577|   -8.676778|    0.824006|    0.012018|
|         750|   -6.437562|   -8.678199|    0.824006|    0.012018|
|         751|   -6.447106|   -8.679633|    0.824006|    0.012018|
|         752|   -6.458009|   -8.681075|    0.824006|    0.012018|
|         753|   -6.469868|   -8.682530|    0.824006|    0.012018|
|         754|   -6.482191|   -8.684002|    0.824006|    0.012018|
|         755|   -6.494498|   -8.685497|    0.824005|    0.012018|
|         756|   -6.506424|   -8.687021|    0.824005|    0.012018|
|         757|   -6.517772|   -8.688587|    0.824005|    0.012018|
|         758|   -6.528532|   -8.690207|    0.824005|    0.012018|
|         759|   -6.538844|   -8.691894|    0.824005|    0.012018|
|         760|   -6.548930|   -8.693666|    0.824005|    0.012018|
|         761|   -6.559036|   -8.695542|    0.824005|    0.012018|
|         762|   -6.569369|   -8.697543|    0.824005|    0.012017|
|         763|   -6.580071|   -8.699690|    0.824005|    0.012017|
|         764|   -6.591212|   -8.702007|    0.824005|    0.012017|
|         765|   -6.602804|   -8.704518|    0.824005|    0.012017|
|         766|   -6.614817|   -8.707247|    0.824004|    0.012017|
|         767|   -6.627208|   -8.710218|    0.824004|    0.012017|
|         768|   -6.639932|   -8.713449|    0.824004|    0.012017|
|         769|   -6.652959|   -8.716955|    0.824004|    0.012017|
|         770|   -6.666273|   -8.720748|    0.824004|    0.012017|
|         771|   -6.679867|   -8.724829|    0.824004|    0.012017|
|         772|   -6.693737|   -8.729196|    0.824004|    0.012017|
|         773|   -6.707873|   -8.733834|    0.824004|    0.012017|
|         774|   -6.722248|   -8.738721|    0.824003|    0.012017|
|         775|   -6.736820|   -8.743823|    0.824003|    0.012017|
|         776|   -6.751523|   -8.749097|    0.824003|    0.012017|
|         777|   -6.766274|   -8.754489|    0.824003|    0.012017|
|         778|   -6.780972|   -8.759937|    0.824003|    0.012017|
|         779|   -6.795506|   -8.765374|    0.824003|    0.012017|
|         780|   -6.809756|   -8.770726|    0.824003|    0.012017|
|         781|   -6.823601|   -8.775918|    0.824003|    0.012017|
|         782|   -6.836920|   -8.780879|    0.824003|    0.012018|
|         783|   -6.849600|   -8.785541|    0.824003|    0.012018|
|         784|   -6.861538|   -8.789848|    0.824003|    0.012018|
|         785|   -6.872646|   -8.793755|    0.824003|    0.012018|
|         786|   -6.882858|   -8.797235|    0.824003|    0.012018|
|         787|   -6.892132|   -8.800279|    0.824003|    0.012018|
|         788|   -6.900452|   -8.802894|    0.824003|    0.012018|
|         789|   -6.907830|   -8.805106|    0.824003|    0.012018|
|         790|   -6.914307|   -8.806959|    0.824003|    0.012018|
|         791|   -6.919944|   -8.808510|    0.824003|    0.012018|
|         792|   -6.924822|   -8.809824|    0.824004|    0.012018|
|         793|   -6.929037|   -8.810975|    0.824004|    0.012018|
|         794|   -6.932691|   -8.812039|    0.824004|    0.012018|
|         795|   -6.935888|   -8.813089|    0.824004|    0.012018|
|         796|   -6.938728|   -8.814195|    0.824004|    0.012018|
|         797|   -6.941308|   -8.815420|    0.824004|    0.012018|
|         798|   -6.943713|   -8.816816|    0.824004|    0.012018|
|         799|   -6.946018|   -8.818424|    0.824005|    0.012018|
|         800|   -6.948290|   -8.820274|    0.824005|    0.012018|
|         801|   -6.950580|   -8.822382|    0.824005|    0.012018|
+-----------------------------------------------------------------------+
|Fixed CL Mode                           |Value                         |
+-----------------------------------------------------------------------+
|Current CL                              |0.824005                      |
|Target CL                               |0.824                         |
|Previous AOA                            |2.79045                       |
|Changed AoA by                          |-2.34836e-05                  |
+-----------------------------------------------------------------------+
+----------------------------------------------------------------+
|  Inner_Iter|    rms[Rho]|     rms[nu]|          CL|          CD|
+----------------------------------------------------------------+
|         802|   -4.822607|   -8.717507|    0.824005|    0.012018|
|         803|   -5.206648|   -8.767240|    0.824005|    0.012018|
|         804|   -5.449335|   -8.785569|    0.824005|    0.012018|
|         805|   -5.527470|   -8.797283|    0.824006|    0.012018|
|         806|   -5.581037|   -8.806774|    0.824006|    0.012018|
|         807|   -5.650782|   -8.815032|    0.824006|    0.012018|
|         808|   -5.737257|   -8.822331|    0.824006|    0.012018|
|         809|   -5.828085|   -8.828809|    0.824006|    0.012018|
|         810|   -5.907138|   -8.834530|    0.824006|    0.012018|
|         811|   -5.965952|   -8.839472|    0.824007|    0.012018|
|         812|   -6.005626|   -8.843639|    0.824007|    0.012018|
|         813|   -6.029408|   -8.847162|    0.824007|    0.012018|
|         814|   -6.040728|   -8.850262|    0.824007|    0.012018|
|         815|   -6.045411|   -8.853096|    0.824007|    0.012018|
|         816|   -6.050366|   -8.855730|    0.824007|    0.012018|
|         817|   -6.060366|   -8.858165|    0.824007|    0.012018|
|         818|   -6.076669|   -8.860407|    0.824007|    0.012018|
|         819|   -6.097571|   -8.862510|    0.824007|    0.012018|
|         820|   -6.119934|   -8.864554|    0.824008|    0.012018|
|         821|   -6.141064|   -8.866615|    0.824008|    0.012018|
|         822|   -6.160060|   -8.868724|    0.824008|    0.012018|
|         823|   -6.177764|   -8.870880|    0.824008|    0.012018|
|         824|   -6.195579|   -8.873058|    0.824008|    0.012018|
|         825|   -6.214327|   -8.875242|    0.824008|    0.012018|
|         826|   -6.233846|   -8.877424|    0.824008|    0.012018|
|         827|   -6.253240|   -8.879618|    0.824008|    0.012018|
|         828|   -6.271349|   -8.881851|    0.824008|    0.012018|
|         829|   -6.287143|   -8.884157|    0.824008|    0.012018|
|         830|   -6.299962|   -8.886550|    0.824008|    0.012018|
|         831|   -6.309646|   -8.889073|    0.824008|    0.012018|
|         832|   -6.316594|   -8.891783|    0.824008|    0.012018|
|         833|   -6.321713|   -8.894676|    0.824008|    0.012018|
|         834|   -6.326199|   -8.897752|    0.824008|    0.012018|
|         835|   -6.331249|   -8.900995|    0.824008|    0.012018|
|         836|   -6.337804|   -8.904381|    0.824008|    0.012018|
|         837|   -6.346402|   -8.907875|    0.824008|    0.012018|
|         838|   -6.357142|   -8.911438|    0.824008|    0.012018|
|         839|   -6.369688|   -8.915028|    0.824008|    0.012018|
|         840|   -6.383328|   -8.918605|    0.824008|    0.012018|
|         841|   -6.397071|   -8.922134|    0.824007|    0.012018|
|         842|   -6.409836|   -8.925592|    0.824007|    0.012018|
|         843|   -6.420720|   -8.928962|    0.824007|    0.012018|
|         844|   -6.429268|   -8.932240|    0.824007|    0.012018|
|         845|   -6.435622|   -8.935429|    0.824007|    0.012018|
|         846|   -6.440455|   -8.938537|    0.824007|    0.012018|
|         847|   -6.444731|   -8.941577|    0.824007|    0.012018|
|         848|   -6.449415|   -8.944560|    0.824007|    0.012018|
|         849|   -6.455255|   -8.947498|    0.824007|    0.012018|
|         850|   -6.462667|   -8.950382|    0.824007|    0.012018|
|         851|   -6.471728|   -8.953268|    0.824006|    0.012018|
|         852|   -6.482221|   -8.956117|    0.824006|    0.012018|
|         853|   -6.493733|   -8.958927|    0.824006|    0.012018|
|         854|   -6.505756|   -8.961676|    0.824006|    0.012018|
|         855|   -6.517805|   -8.964345|    0.824006|    0.012018|
|         856|   -6.529515|   -8.966916|    0.824006|    0.012018|
|         857|   -6.540696|   -8.969370|    0.824006|    0.012018|
|         858|   -6.551346|   -8.971690|    0.824006|    0.012018|
|         859|   -6.561614|   -8.973855|    0.824005|    0.012018|
|         860|   -6.571733|   -8.975854|    0.824005|    0.012018|
|         861|   -6.581951|   -8.977677|    0.824005|    0.012018|
|         862|   -6.592476|   -8.979323|    0.824005|    0.012018|
|         863|   -6.603448|   -8.980800|    0.824005|    0.012018|
|         864|   -6.614928|   -8.982128|    0.824005|    0.012018|
|         865|   -6.626915|   -8.983333|    0.824004|    0.012018|
|         866|   -6.639365|   -8.984459|    0.824004|    0.012017|
|         867|   -6.652212|   -8.985550|    0.824004|    0.012017|
|         868|   -6.665390|   -8.986660|    0.824004|    0.012017|
|         869|   -6.678839|   -8.987844|    0.824004|    0.012017|
|         870|   -6.692511|   -8.989158|    0.824004|    0.012017|
|         871|   -6.706365|   -8.990653|    0.824003|    0.012017|
|         872|   -6.720358|   -8.992376|    0.824003|    0.012017|
|         873|   -6.734433|   -8.994361|    0.824003|    0.012017|
|         874|   -6.748517|   -8.996628|    0.824003|    0.012017|
|         875|   -6.762511|   -8.999186|    0.824003|    0.012017|
|         876|   -6.776295|   -9.002021|    0.824003|    0.012017|
|         877|   -6.789727|   -9.005104|    0.824003|    0.012017|
|         878|   -6.802653|   -9.008387|    0.824002|    0.012017|
|         879|   -6.814915|   -9.011804|    0.824002|    0.012017|
|         880|   -6.826360|   -9.015271|    0.824002|    0.012017|
|         881|   -6.836850|   -9.018696|    0.824002|    0.012017|
|         882|   -6.846269|   -9.021975|    0.824002|    0.012017|
|         883|   -6.854536|   -9.025002|    0.824002|    0.012017|
|         884|   -6.861601|   -9.027675|    0.824002|    0.012017|
|         885|   -6.867456|   -9.029905|    0.824002|    0.012017|
|         886|   -6.872131|   -9.031619|    0.824002|    0.012018|
|         887|   -6.875692|   -9.032769|    0.824002|    0.012018|
|         888|   -6.878234|   -9.033337|    0.824002|    0.012018|
|         889|   -6.879877|   -9.033336|    0.824002|    0.012018|
|         890|   -6.880754|   -9.032810|    0.824002|    0.012018|
|         891|   -6.881007|   -9.031832|    0.824002|    0.012018|
|         892|   -6.880778|   -9.030499|    0.824002|    0.012018|
|         893|   -6.880202|   -9.028924|    0.824002|    0.012018|
|         894|   -6.879402|   -9.027230|    0.824002|    0.012018|
|         895|   -6.878490|   -9.025544|    0.824002|    0.012018|
|         896|   -6.877561|   -9.023986|    0.824003|    0.012018|
|         897|   -6.876696|   -9.022667|    0.824003|    0.012018|
|         898|   -6.875960|   -9.021683|    0.824003|    0.012018|
|         899|   -6.875405|   -9.021110|    0.824003|    0.012018|
|         900|   -6.875070|   -9.021001|    0.824003|    0.012018|
|         901|   -6.874986|   -9.021386|    0.824003|    0.012017|
+-----------------------------------------------------------------------+
|Fixed CL Mode                           |Value                         |
+-----------------------------------------------------------------------+
|Current CL                              |0.824003                      |
|Target CL                               |0.824                         |
|Previous AOA                            |2.79043                       |
[...]
|        5298|   -6.037003|   -7.955472|    0.824237|    0.012022|
|        5299|   -6.043674|   -7.959106|    0.824237|    0.012021|
|        5300|   -6.049957|   -7.962745|    0.824237|    0.012021|
|        5301|   -6.055814|   -7.966404|    0.824237|    0.012021|
|        5302|   -6.061217|   -7.970095|    0.824237|    0.012021|
|        5303|   -6.066150|   -7.973828|    0.824238|    0.012021|
|        5304|   -6.070607|   -7.977613|    0.824238|    0.012021|
|        5305|   -6.074597|   -7.981455|    0.824238|    0.012021|
|        5306|   -6.078138|   -7.985360|    0.824238|    0.012021|
|        5307|   -6.081259|   -7.989332|    0.824238|    0.012021|
|        5308|   -6.083998|   -7.993373|    0.824238|    0.012021|
|        5309|   -6.086402|   -7.997487|    0.824238|    0.012021|
|        5310|   -6.088521|   -8.001677|    0.824238|    0.012021|
|        5311|   -6.090409|   -8.005948|    0.824238|    0.012021|
|        5312|   -6.092124|   -8.010304|    0.824238|    0.012021|
|        5313|   -6.093722|   -8.014749|    0.824239|    0.012021|
|        5314|   -6.095259|   -8.019287|    0.824239|    0.012021|
|        5315|   -6.096786|   -8.023928|    0.824239|    0.012021|
|        5316|   -6.098352|   -8.028674|    0.824239|    0.012021|
|        5317|   -6.100002|   -8.033534|    0.824239|    0.012021|
|        5318|   -6.101774|   -8.038513|    0.824239|    0.012021|
|        5319|   -6.103699|   -8.043617|    0.824239|    0.012021|
|        5320|   -6.105805|   -8.048851|    0.824240|    0.012021|
|        5321|   -6.108109|   -8.054218|    0.824240|    0.012021|
|        5322|   -6.110627|   -8.059723|    0.824240|    0.012022|
|        5323|   -6.113362|   -8.065368|    0.824240|    0.012022|
|        5324|   -6.116316|   -8.071153|    0.824240|    0.012022|
|        5325|   -6.119480|   -8.077071|    0.824240|    0.012022|
|        5326|   -6.122842|   -8.083118|    0.824240|    0.012022|
|        5327|   -6.126383|   -8.089286|    0.824241|    0.012022|
|        5328|   -6.130078|   -8.095571|    0.824241|    0.012022|
|        5329|   -6.133897|   -8.101960|    0.824241|    0.012022|
|        5330|   -6.137807|   -8.108442|    0.824241|    0.012022|
|        5331|   -6.141770|   -8.115005|    0.824241|    0.012022|
|        5332|   -6.145746|   -8.121634|    0.824241|    0.012022|
|        5333|   -6.149696|   -8.128314|    0.824241|    0.012022|
|        5334|   -6.153577|   -8.135029|    0.824242|    0.012023|
|        5335|   -6.157350|   -8.141763|    0.824242|    0.012023|
|        5336|   -6.160978|   -8.148501|    0.824242|    0.012023|
|        5337|   -6.164428|   -8.155226|    0.824242|    0.012023|
|        5338|   -6.167670|   -8.161925|    0.824242|    0.012023|
|        5339|   -6.170684|   -8.168586|    0.824242|    0.012023|
|        5340|   -6.173455|   -8.175199|    0.824242|    0.012023|
|        5341|   -6.175976|   -8.181750|    0.824242|    0.012023|
|        5342|   -6.178247|   -8.188230|    0.824243|    0.012023|
|        5343|   -6.180280|   -8.194635|    0.824243|    0.012023|
|        5344|   -6.182089|   -8.200958|    0.824243|    0.012023|
|        5345|   -6.183699|   -8.207201|    0.824243|    0.012023|
|        5346|   -6.185140|   -8.213361|    0.824243|    0.012023|
|        5347|   -6.186448|   -8.219438|    0.824243|    0.012024|
|        5348|   -6.187661|   -8.225429|    0.824243|    0.012024|
|        5349|   -6.188822|   -8.231340|    0.824243|    0.012024|
|        5350|   -6.189971|   -8.237175|    0.824243|    0.012024|
|        5351|   -6.191153|   -8.242940|    0.824243|    0.012024|
|        5352|   -6.192410|   -8.248641|    0.824243|    0.012024|
|        5353|   -6.193780|   -8.254285|    0.824243|    0.012024|
|        5354|   -6.195303|   -8.259877|    0.824243|    0.012024|
|        5355|   -6.197011|   -8.265422|    0.824243|    0.012024|
|        5356|   -6.198937|   -8.270923|    0.824243|    0.012024|
|        5357|   -6.201104|   -8.276384|    0.824243|    0.012024|
|        5358|   -6.203537|   -8.281805|    0.824243|    0.012024|
|        5359|   -6.206252|   -8.287185|    0.824243|    0.012024|
|        5360|   -6.209261|   -8.292525|    0.824243|    0.012024|
|        5361|   -6.212573|   -8.297821|    0.824243|    0.012024|
|        5362|   -6.216190|   -8.303070|    0.824243|    0.012024|
|        5363|   -6.220109|   -8.308268|    0.824243|    0.012024|
|        5364|   -6.224325|   -8.313411|    0.824243|    0.012024|
|        5365|   -6.228826|   -8.318493|    0.824243|    0.012024|
|        5366|   -6.233593|   -8.323511|    0.824243|    0.012024|
|        5367|   -6.238607|   -8.328459|    0.824243|    0.012024|
|        5368|   -6.243840|   -8.333333|    0.824243|    0.012024|
|        5369|   -6.249262|   -8.338129|    0.824243|    0.012024|
|        5370|   -6.254839|   -8.342843|    0.824243|    0.012024|
|        5371|   -6.260531|   -8.347473|    0.824243|    0.012024|
|        5372|   -6.266298|   -8.352015|    0.824243|    0.012024|
|        5373|   -6.272094|   -8.356469|    0.824243|    0.012023|
|        5374|   -6.277872|   -8.360834|    0.824243|    0.012023|
|        5375|   -6.283586|   -8.365112|    0.824243|    0.012023|
|        5376|   -6.289187|   -8.369304|    0.824243|    0.012023|
|        5377|   -6.294629|   -8.373415|    0.824243|    0.012023|
|        5378|   -6.299866|   -8.377450|    0.824243|    0.012023|
|        5379|   -6.304857|   -8.381415|    0.824243|    0.012023|
|        5380|   -6.309565|   -8.385317|    0.824243|    0.012023|
|        5381|   -6.313958|   -8.389164|    0.824243|    0.012023|
|        5382|   -6.318010|   -8.392965|    0.824243|    0.012023|
|        5383|   -6.321702|   -8.396728|    0.824243|    0.012023|
|        5384|   -6.325021|   -8.400463|    0.824243|    0.012023|
|        5385|   -6.327964|   -8.404178|    0.824243|    0.012023|
|        5386|   -6.330531|   -8.407883|    0.824243|    0.012022|
|        5387|   -6.332731|   -8.411584|    0.824243|    0.012022|
|        5388|   -6.334579|   -8.415288|    0.824243|    0.012022|
|        5389|   -6.336092|   -8.419000|    0.824243|    0.012022|
|        5390|   -6.337295|   -8.422725|    0.824243|    0.012022|
|        5391|   -6.338212|   -8.426464|    0.824243|    0.012022|
|        5392|   -6.338869|   -8.430217|    0.824243|    0.012022|
|        5393|   -6.339295|   -8.433991|    0.824243|    0.012022|
|        5394|   -6.339516|   -8.437781|    0.824243|    0.012022|
|        5395|   -6.339558|   -8.441583|    0.824244|    0.012022|
|        5396|   -6.339445|   -8.445389|    0.824244|    0.012021|
|        5397|   -6.339199|   -8.449188|    0.824244|    0.012021|
|        5398|   -6.338842|   -8.452968|    0.824244|    0.012021|
|        5399|   -6.338391|   -8.456717|    0.824244|    0.012021|
|        5400|   -6.337861|   -8.460421|    0.824244|    0.012021|
|        5401|   -6.337264|   -8.464067|    0.824244|    0.012021|
|        5402|   -6.336611|   -8.467643|    0.824245|    0.012021|
|        5403|   -6.335911|   -8.471136|    0.824245|    0.012021|
|        5404|   -6.335171|   -8.474536|    0.824245|    0.012021|
|        5405|   -6.334395|   -8.477834|    0.824245|    0.012021|
|        5406|   -6.333588|   -8.481023|    0.824245|    0.012021|
|        5407|   -6.332753|   -8.484096|    0.824245|    0.012020|
|        5408|   -6.331893|   -8.487050|    0.824245|    0.012020|
|        5409|   -6.331010|   -8.489881|    0.824246|    0.012020|
|        5410|   -6.330106|   -8.492591|    0.824246|    0.012020|
|        5411|   -6.329184|   -8.495178|    0.824246|    0.012020|
|        5412|   -6.328246|   -8.497646|    0.824246|    0.012020|
|        5413|   -6.327295|   -8.499995|    0.824246|    0.012020|
|        5414|   -6.326334|   -8.502230|    0.824246|    0.012020|
|        5415|   -6.325367|   -8.504354|    0.824247|    0.012020|
|        5416|   -6.324398|   -8.506369|    0.824247|    0.012020|
|        5417|   -6.323433|   -8.508279|    0.824247|    0.012020|
|        5418|   -6.322476|   -8.510085|    0.824247|    0.012020|
|        5419|   -6.321535|   -8.511789|    0.824247|    0.012020|
|        5420|   -6.320617|   -8.513392|    0.824247|    0.012020|
|        5421|   -6.319729|   -8.514893|    0.824247|    0.012020|
|        5422|   -6.318881|   -8.516292|    0.824248|    0.012020|
|        5423|   -6.318082|   -8.517585|    0.824248|    0.012020|
|        5424|   -6.317341|   -8.518771|    0.824248|    0.012019|
|        5425|   -6.316671|   -8.519847|    0.824248|    0.012019|
|        5426|   -6.316083|   -8.520811|    0.824248|    0.012019|
|        5427|   -6.315588|   -8.521659|    0.824248|    0.012019|
|        5428|   -6.315200|   -8.522390|    0.824248|    0.012019|
|        5429|   -6.314933|   -8.523002|    0.824248|    0.012019|
|        5430|   -6.314799|   -8.523496|    0.824248|    0.012019|
|        5431|   -6.314813|   -8.523872|    0.824248|    0.012019|
|        5432|   -6.314989|   -8.524133|    0.824248|    0.012019|
|        5433|   -6.315341|   -8.524284|    0.824248|    0.012019|
|        5434|   -6.315883|   -8.524331|    0.824248|    0.012020|
|        5435|   -6.316628|   -8.524280|    0.824248|    0.012020|
|        5436|   -6.317588|   -8.524141|    0.824248|    0.012020|
|        5437|   -6.318777|   -8.523922|    0.824249|    0.012020|
|        5438|   -6.320204|   -8.523635|    0.824249|    0.012020|
|        5439|   -6.321878|   -8.523295|    0.824249|    0.012020|
|        5440|   -6.323809|   -8.522915|    0.824249|    0.012020|
|        5441|   -6.326001|   -8.522509|    0.824249|    0.012020|
|        5442|   -6.328459|   -8.522087|    0.824249|    0.012020|
|        5443|   -6.331186|   -8.521662|    0.824249|    0.012020|
|        5444|   -6.334181|   -8.521244|    0.824248|    0.012020|
|        5445|   -6.337439|   -8.520844|    0.824248|    0.012020|
|        5446|   -6.340956|   -8.520472|    0.824248|    0.012020|
|        5447|   -6.344723|   -8.520135|    0.824248|    0.012020|
|        5448|   -6.348725|   -8.519842|    0.824248|    0.012020|
|        5449|   -6.352949|   -8.519597|    0.824248|    0.012020|
|        5450|   -6.357374|   -8.519406|    0.824248|    0.012020|
|        5451|   -6.361977|   -8.519272|    0.824248|    0.012020|
|        5452|   -6.366732|   -8.519196|    0.824248|    0.012021|
|        5453|   -6.371608|   -8.519182|    0.824248|    0.012021|
|        5454|   -6.376572|   -8.519228|    0.824248|    0.012021|
|        5455|   -6.381586|   -8.519334|    0.824248|    0.012021|
|        5456|   -6.386611|   -8.519500|    0.824248|    0.012021|
|        5457|   -6.391606|   -8.519724|    0.824248|    0.012021|
|        5458|   -6.396526|   -8.520002|    0.824247|    0.012021|
|        5459|   -6.401327|   -8.520333|    0.824247|    0.012021|
|        5460|   -6.405962|   -8.520712|    0.824247|    0.012021|
|        5461|   -6.410389|   -8.521138|    0.824247|    0.012021|
|        5462|   -6.414564|   -8.521607|    0.824247|    0.012021|
|        5463|   -6.418447|   -8.522115|    0.824247|    0.012021|
|        5464|   -6.422003|   -8.522658|    0.824247|    0.012021|
|        5465|   -6.425201|   -8.523234|    0.824247|    0.012021|
|        5466|   -6.428015|   -8.523839|    0.824246|    0.012022|
|        5467|   -6.430428|   -8.524469|    0.824246|    0.012022|
|        5468|   -6.432428|   -8.525122|    0.824246|    0.012022|
|        5469|   -6.434012|   -8.525795|    0.824246|    0.012022|
|        5470|   -6.435183|   -8.526486|    0.824246|    0.012022|
|        5471|   -6.435952|   -8.527192|    0.824246|    0.012022|
|        5472|   -6.436338|   -8.527913|    0.824245|    0.012022|
|        5473|   -6.436365|   -8.528647|    0.824245|    0.012022|
|        5474|   -6.436061|   -8.529392|    0.824245|    0.012022|
|        5475|   -6.435462|   -8.530148|    0.824245|    0.012022|
|        5476|   -6.434604|   -8.530915|    0.824245|    0.012022|
|        5477|   -6.433526|   -8.531692|    0.824244|    0.012022|
|        5478|   -6.432269|   -8.532479|    0.824244|    0.012022|
|        5479|   -6.430874|   -8.533275|    0.824244|    0.012022|
|        5480|   -6.429382|   -8.534081|    0.824244|    0.012022|
|        5481|   -6.427831|   -8.534898|    0.824244|    0.012022|
|        5482|   -6.426261|   -8.535725|    0.824243|    0.012022|
|        5483|   -6.424705|   -8.536564|    0.824243|    0.012022|
|        5484|   -6.423199|   -8.537415|    0.824243|    0.012022|
|        5485|   -6.421771|   -8.538279|    0.824243|    0.012022|
|        5486|   -6.420450|   -8.539158|    0.824243|    0.012022|
|        5487|   -6.419262|   -8.540054|    0.824243|    0.012022|
|        5488|   -6.418227|   -8.540969|    0.824242|    0.012022|
|        5489|   -6.417365|   -8.541906|    0.824242|    0.012022|
|        5490|   -6.416693|   -8.542866|    0.824242|    0.012022|
|        5491|   -6.416224|   -8.543855|    0.824242|    0.012022|
|        5492|   -6.415972|   -8.544875|    0.824242|    0.012022|
|        5493|   -6.415943|   -8.545930|    0.824242|    0.012022|
|        5494|   -6.416147|   -8.547025|    0.824241|    0.012022|
|        5495|   -6.416587|   -8.548164|    0.824241|    0.012022|
|        5496|   -6.417268|   -8.549352|    0.824241|    0.012022|
|        5497|   -6.418190|   -8.550593|    0.824241|    0.012022|
|        5498|   -6.419355|   -8.551893|    0.824241|    0.012022|
|        5499|   -6.420761|   -8.553257|    0.824241|    0.012007|
+-----------------------------------------------------------------------+
|Fixed CL Mode (Finite Difference)       |Value                         |
+-----------------------------------------------------------------------+
|Delta CL / Delta AoA                    |0.240419                      |
|Delta CD / Delta CL                     |0.0173826                     |
|Delta CMz / Delta CL                    |-0.00113635                   |
+-----------------------------------------------------------------------+
Writing Flow Meta-Data file: flow.meta

----------------------------- Solver Exit -------------------------------

Maximum number of iterations reached (ITER = 5500) before convergence.
+-----------------------------------------------------------------------+
|      Convergence Field     |     Value    |   Criterion  |  Converged |
+-----------------------------------------------------------------------+
|                    rms[Rho]|      -6.42076|         < -12|          No|
+-----------------------------------------------------------------------+
-------------------------------------------------------------------------

--------------------------- Finalizing Solver ---------------------------
Deleted CNumerics container.
Deleted CIntegration container.
Deleted CSolver container.
Deleted CIteration container.
Deleted CInterface container.
Deleted CGeometry container.
Deleted CFreeFormDefBox class.
Deleted CSurfaceMovement class.
Deleted CVolumetricMovement class.
Deleted CConfig container.
Deleted nInst container.
Deleted COutput class.
-------------------------------------------------------------------------

------------------------- Exit Success (SU2_CFD) ------------------------


-------------------------------------------------------------------------
|    ___ _   _ ___                                                      |
|   / __| | | |_  )   Release 8.0.0 "Harrier"                           |
|   \__ \ |_| |/ /                                                      |
|   |___/\___//___|   Suite (Solution Exporting Code)                   |
|                                                                       |
-------------------------------------------------------------------------
| SU2 Project Website: https://su2code.github.io                        |
|                                                                       |
| The SU2 Project is maintained by the SU2 Foundation                   |
| (http://su2foundation.org)                                            |
-------------------------------------------------------------------------
| Copyright 2012-2023, SU2 Contributors                                 |
|                                                                       |
| SU2 is free software; you can redistribute it and/or                  |
| modify it under the terms of the GNU Lesser General Public            |
| License as published by the Free Software Foundation; either          |
| version 2.1 of the License, or (at your option) any later version.    |
|                                                                       |
| SU2 is distributed in the hope that it will be useful,                |
| but WITHOUT ANY WARRANTY; without even the implied warranty of        |
| MERCHANTABILITY or FITNESS FOR A PARTICULAR PURPOSE. See the GNU      |
| Lesser General Public License for more details.                       |
|                                                                       |
| You should have received a copy of the GNU Lesser General Public      |
| License along with SU2. If not, see <http://www.gnu.org/licenses/>.   |
-------------------------------------------------------------------------

----------------- Physical Case Definition ( Zone 0 ) -------------------
Input mesh file name: mesh_RAE2822_turb_deform.su2

-------------------- Output Information ( Zone 0 ) ----------------------
The tabular file format is CSV (.csv).
Flow variables file name: flow.

------------- Config File Boundary Information ( Zone 0 ) ---------------
+-----------------------------------------------------------------------+
|                        Marker Type|                        Marker Name|
+-----------------------------------------------------------------------+
|                          Far-field|                           FARFIELD|
+-----------------------------------------------------------------------+
|                     Heat flux wall|                            AIRFOIL|
+-----------------------------------------------------------------------+
Two dimensional problem.
13937 grid points before partitioning.
22842 volume elements before partitioning.
2 surface markers.
192 boundary elements in index 0 (Marker = AIRFOIL).
40 boundary elements in index 1 (Marker = FARFIELD).
Executing the partitioning functions.
Building the graph adjacency structure.
Calling ParMETIS... graph partitioning complete (831 edge cuts).
Distributing ParMETIS coloring.
Rebalancing vertices.
Rebalancing volume element connectivity.
Rebalancing markers and surface elements.
14875 vertices including ghost points. 
23674 interior elements including halo cells. 
18780 triangles.
4894 quadrilaterals.
Establishing MPI communication patterns.
Identify vertices.
Storing a mapping from global to local point index.

------------------------- Solution Postprocessing -----------------------
Reading and storing the solution from restart_flow.
Volume output fields: COORDINATES, SOLUTION
  Info: Ignoring the following screen output fields:
  RMS_DENSITY, RMS_NU_TILDE, LIFT, DRAG
Screen output fields: INNER_ITER
  Info: Ignoring the following history output groups:
  RMS_RES, AERO_COEFF
History output group(s): ITER
Warning: No (valid) fields chosen for convergence monitoring. Convergence monitoring inactive.
Warning: No (valid) fields chosen for time convergence monitoring. Time convergence monitoring inactive.
|Paraview                           |flow.vtu                           |
|Paraview surface                   |surface_flow.vtu                   |
|CSV file                           |surface_flow.csv                   |

------------------------- Finalize Solver -------------------------
Deleted CGeometry container.
Deleted CSolver class.
Deleted CConfig container.
Deleted COutput class.

Completed in 0.015236 seconds on 6 cores.

------------------------- Exit Success (SU2_SOL) ------------------------

