
-------------------------------------------------------------------------
|    ___ _   _ ___                                                      |
|   / __| | | |_  )   Release 8.0.0 "Harrier"                           |
|   \__ \ |_| |/ /                                                      |
|   |___/\___//___|   Suite (Computational Fluid Dynamics Code)         |
|                                                                       |
-------------------------------------------------------------------------
| SU2 Project Website: https://su2code.github.io                        |
|                                                                       |
| The SU2 Project is maintained by the SU2 Foundation                   |
| (http://su2foundation.org)                                            |
-------------------------------------------------------------------------
| Copyright 2012-2023, SU2 Contributors                                 |
|                                                                       |
| SU2 is free software; you can redistribute it and/or                  |
| modify it under the terms of the GNU Lesser General Public            |
| License as published by the Free Software Foundation; either          |
| version 2.1 of the License, or (at your option) any later version.    |
|                                                                       |
| SU2 is distributed in the hope that it will be useful,                |
| but WITHOUT ANY WARRANTY; without even the implied warranty of        |
| MERCHANTABILITY or FITNESS FOR A PARTICULAR PURPOSE. See the GNU      |
| Lesser General Public License for more details.                       |
|                                                                       |
| You should have received a copy of the GNU Lesser General Public      |
| License along with SU2. If not, see <http://www.gnu.org/licenses/>.   |
-------------------------------------------------------------------------

Parsing config file for zone 0

----------------- Physical Case Definition ( Zone 0 ) -------------------
Compressible RANS equations.
Turbulence model: Spalart-Allmaras-noft2
Hybrid RANS/LES: No Hybrid RANS/LES
Mach number: 0.734.
Angle of attack (AoA): 2.31 deg, and angle of sideslip (AoS): 0 deg.
Reynolds number: 6.5e+06. Reference length 1.
Fixed CL mode, target value: 0.824.
Reading and writing binary SU2 native restart files.
Read flow solution from: solution_flow.dat.
Dimensional simulation.
The reference area is 1 m^2.
The semi-span will be computed using the max y(3D) value.
The reference length is 1 m.
Reference origin for moment evaluation is (0.25, 0, 0).
Surface(s) where the force coefficients are evaluated: AIRFOIL.

Surface(s) plotted in the output file: AIRFOIL.
Surface(s) affected by the design variables: AIRFOIL.
Input mesh file name: mesh_RAE2822_turb_deform.su2

--------------- Space Numerical Integration ( Zone 0 ) ------------------
Jameson-Schmidt-Turkel scheme (2nd order in space) for the flow inviscid terms.
JST viscous coefficients (2nd & 4th): 0.5, 0.02.
The method includes a grid stretching correction (p = 0.3).
Scalar upwind solver for the turbulence model.
First order integration in space.
Average of gradients with correction (viscous flow terms).
Average of gradients with correction (viscous turbulence terms).
Gradient for viscous and source terms: inverse-distance weighted Least-Squares.

--------------- Time Numerical Integration  ( Zone 0 ) ------------------
Local time stepping (steady state simulation).
Euler implicit method for the flow equations.
FGMRES is used for solving the linear system.
Using a ILU(0) preconditioning.
Convergence criteria of the linear solver: 1e-06.
Max number of linear iterations: 10.
No CFL adaptation.
Courant-Friedrichs-Lewy number:       10
Euler implicit time integration for the turbulence model.

------------------ Convergence Criteria  ( Zone 0 ) ---------------------
Maximum number of solver subiterations: 5500.
Begin convergence monitoring at iteration 10.
Residual minimum value: 1e-12.
Cauchy series min. value: 1e-06.
Number of Cauchy elements: 100.
Begin windowed time average at iteration 0.

-------------------- Output Information ( Zone 0 ) ----------------------
File writing frequency: 
+------------------------------------+
|                     File| Frequency|
+------------------------------------+
|                  RESTART|     10000|
|                 PARAVIEW|     10000|
|         SURFACE_PARAVIEW|     10000|
|              SURFACE_CSV|     10000|
+------------------------------------+
Writing the convergence history file every 1 inner iterations.
Writing the screen convergence history every 1 inner iterations.
The tabular file format is CSV (.csv).
Convergence history file name: history_direct.
Forces breakdown file name: forces_breakdown.dat.
Surface file name: surface_flow.
Volume file name: flow.
Restart file name: restart_flow.dat.

------------- Config File Boundary Information ( Zone 0 ) ---------------
+-----------------------------------------------------------------------+
|                        Marker Type|                        Marker Name|
+-----------------------------------------------------------------------+
|                          Far-field|                           FARFIELD|
+-----------------------------------------------------------------------+
|                     Heat flux wall|                            AIRFOIL|
+-----------------------------------------------------------------------+

-------------------- Output Preprocessing ( Zone 0 ) --------------------

WARNING: SURFACE_PRESSURE_DROP can only be computed for at least 2 surfaces (outlet, inlet, ...)

Screen output fields: INNER_ITER, RMS_DENSITY, RMS_NU_TILDE, LIFT, DRAG
History output group(s): ITER, RMS_RES, AERO_COEFF
Convergence field(s): RMS_DENSITY
Warning: No (valid) fields chosen for time convergence monitoring. Time convergence monitoring inactive.
Volume output fields: COORDINATES, SOLUTION, PRIMITIVE

------------------- Geometry Preprocessing ( Zone 0 ) -------------------
Two dimensional problem.
13937 grid points before partitioning.
22842 volume elements before partitioning.
2 surface markers.
192 boundary elements in index 0 (Marker = AIRFOIL).
40 boundary elements in index 1 (Marker = FARFIELD).
Executing the partitioning functions.
Building the graph adjacency structure.
Calling ParMETIS... graph partitioning complete (831 edge cuts).
Distributing ParMETIS coloring.
Rebalancing vertices.
Rebalancing volume element connectivity.
Rebalancing markers and surface elements.
14875 vertices including ghost points. 
23674 interior elements including halo cells. 
18780 triangles.
4894 quadrilaterals.
Establishing MPI communication patterns.
Setting point connectivity.
Renumbering points (Reverse Cuthill McKee Ordering).
Recomputing point connectivity.
Setting element connectivity.
Checking the numerical grid orientation.
All volume elements are correctly orientend.
All surface elements are correctly orientend.
Identifying edges and vertices.
Setting the control volume structure.
Area of the computational grid: 32209.9.
Searching for the closest normal neighbors to the surfaces.
Storing a mapping from global to local point index.
Compute the surface curvature.
Max K: 160.034. Mean K: 7.3533. Standard deviation K: 21.8625.
Checking for periodicity.
Computing mesh quality statistics for the dual control volumes.
+--------------------------------------------------------------+
|           Mesh Quality Metric|        Minimum|        Maximum|
+--------------------------------------------------------------+
|    Orthogonality Angle (deg.)|        75.2883|        89.9992|
|     CV Face Area Aspect Ratio|         1.0013|        3358.38|
|           CV Sub-Volume Ratio|        1.00064|        1211.57|
+--------------------------------------------------------------+
Finding max control volume width.
Communicating number of neighbors.
Wetted area = 2.0231 m.
Area projection in the x-plane = 0.124076 m, y-plane = 0.995873 m.
Max. coordinate in the x-direction = 1 m, y-direction = 0.0633735 m.
Min. coordinate in the x-direction = 0 m, y-direction = -0.0594627 m.
Computing wall distances.

-------------------- Solver Preprocessing ( Zone 0 ) --------------------
WARNING: AoA in the solution file (2.7811 deg.) +
         AoA offset in mesh file (0 deg.) = 2.7811 deg.
WARNING: SU2 will use the dCD/dCL provided in the direct solution file: 0.0200621.
WARNING: SU2 will use the dCMz/dCL provided in the direct solution file: 0.00949768.
Viscous flow: Computing pressure using the ideal gas law
based on the free-stream temperature and a density computed
from the Reynolds number.
Force coefficients computed using free-stream values.

-- Models:
+------------------------------------------------------------------------------+
|          Viscosity Model|        Conductivity Model|              Fluid Model|
+------------------------------------------------------------------------------+
|               SUTHERLAND|          CONSTANT_PRANDTL|             STANDARD_AIR|
+------------------------------------------------------------------------------+
-- Fluid properties:
+------------------------------------------------------------------------------+
|                  Name|    Dim. value|    Ref. value|      Unit|Non-dim. value|
+------------------------------------------------------------------------------+
|        Ref. Viscosity|     1.716e-05|             1|   N.s/m^2|     1.716e-05|
|      Sutherland Temp.|        273.15|             1|         K|        273.15|
|     Sutherland Const.|         110.4|             1|         K|         110.4|
+------------------------------------------------------------------------------+
|        Prandtl (Lam.)|             -|             -|         -|          0.71|
|       Prandtl (Turb.)|             -|             -|         -|           0.9|
+------------------------------------------------------------------------------+
|          Gas Constant|       287.058|             1|  N.m/kg.K|       287.058|
|      Spec. Heat Ratio|             -|             -|         -|           1.4|
+------------------------------------------------------------------------------+
-- Initial and free-stream conditions:
+------------------------------------------------------------------------------+
|                  Name|    Dim. value|    Ref. value|      Unit|Non-dim. value|
+------------------------------------------------------------------------------+
|       Static Pressure|         38515|             1|        Pa|         38515|
|               Density|      0.465631|             1|    kg/m^3|      0.465631|
|           Temperature|        288.15|             1|         K|        288.15|
|          Total Energy|        237984|             1|   m^2/s^2|        237984|
|            Velocity-X|       249.484|             1|       m/s|       249.484|
|            Velocity-Y|       12.1193|             1|       m/s|       12.1193|
|    Velocity Magnitude|       249.778|             1|       m/s|       249.778|
+------------------------------------------------------------------------------+
|             Viscosity|    1.7893e-05|             1|   N.s/m^2|    1.7893e-05|
|          Conductivity|             -|             1|   W/m^2.K|             -|
|     Turb. Kin. Energy|       233.959|             1|   m^2/s^2|       233.959|
|     Spec. Dissipation|        608834|             1|       1/s|        608834|
+------------------------------------------------------------------------------+
|           Mach Number|             -|             -|         -|         0.734|
|       Reynolds Number|             -|             -|         -|       6.5e+06|
+------------------------------------------------------------------------------+
Initialize Jacobian structure (Navier-Stokes). MG level: 0.
Initialize Jacobian structure (SA model).

------------------- Numerics Preprocessing ( Zone 0 ) -------------------

----------------- Integration Preprocessing ( Zone 0 ) ------------------

------------------- Iteration Preprocessing ( Zone 0 ) ------------------
Euler/Navier-Stokes/RANS fluid iteration.

------------------------------ Begin Solver -----------------------------

Simulation Run using the Single-zone Driver
WARNING: SU2 was not compiled for an AVX-capable architecture. Performance could be better,
         see https://su2code.github.io/docs_v7/Build-SU2-Linux-MacOS/#compiler-optimizations
+----------------------------------------------------------------+
|  Inner_Iter|    rms[Rho]|     rms[nu]|          CL|          CD|
+----------------------------------------------------------------+
|           0|   -4.057958|   -5.276678|    0.824455|    0.011853|
|           1|   -4.114903|   -5.375960|    0.824682|    0.011818|
|           2|   -4.177877|   -5.486832|    0.824731|    0.011791|
|           3|   -4.231207|   -5.605729|    0.824667|    0.011771|
|           4|   -4.273768|   -5.730917|    0.824558|    0.011758|
|           5|   -4.304576|   -5.852045|    0.824456|    0.011751|
|           6|   -4.322751|   -5.938037|    0.824389|    0.011751|
|           7|   -4.330081|   -5.957575|    0.824367|    0.011758|
|           8|   -4.329754|   -5.931099|    0.824383|    0.011773|
|           9|   -4.323951|   -5.899439|    0.824427|    0.011796|
|          10|   -4.313714|   -5.881708|    0.824489|    0.011825|
|          11|   -4.300200|   -5.879509|    0.824559|    0.011859|
|          12|   -4.285238|   -5.888287|    0.824629|    0.011898|
|          13|   -4.270852|   -5.899357|    0.824691|    0.011940|
|          14|   -4.258588|   -5.901804|    0.824740|    0.011983|
|          15|   -4.249210|   -5.886997|    0.824770|    0.012027|
|          16|   -4.242748|   -5.854838|    0.824778|    0.012070|
|          17|   -4.238693|   -5.813378|    0.824761|    0.012111|
|          18|   -4.236238|   -5.772417|    0.824721|    0.012148|
|          19|   -4.234532|   -5.738644|    0.824659|    0.012183|
|          20|   -4.232919|   -5.715494|    0.824580|    0.012213|
|          21|   -4.231094|   -5.704118|    0.824489|    0.012239|
|          22|   -4.229133|   -5.704147|    0.824392|    0.012262|
|          23|   -4.227373|   -5.714091|    0.824295|    0.012281|
|          24|   -4.226232|   -5.731425|    0.824202|    0.012297|
|          25|   -4.226035|   -5.752565|    0.824120|    0.012310|
|          26|   -4.226914|   -5.773167|    0.824049|    0.012322|
|          27|   -4.228789|   -5.789040|    0.823992|    0.012333|
|          28|   -4.231411|   -5.797606|    0.823950|    0.012342|
|          29|   -4.234430|   -5.799078|    0.823920|    0.012351|
|          30|   -4.237488|   -5.795958|    0.823903|    0.012360|
|          31|   -4.240290|   -5.791569|    0.823894|    0.012368|
|          32|   -4.242651|   -5.788839|    0.823891|    0.012377|
|          33|   -4.244506|   -5.789674|    0.823891|    0.012386|
|          34|   -4.245895|   -5.794989|    0.823891|    0.012396|
|          35|   -4.246928|   -5.804963|    0.823889|    0.012405|
|          36|   -4.247742|   -5.819065|    0.823881|    0.012415|
|          37|   -4.248462|   -5.836411|    0.823867|    0.012426|
|          38|   -4.249187|   -5.855796|    0.823845|    0.012436|
|          39|   -4.249979|   -5.875906|    0.823814|    0.012447|
|          40|   -4.250863|   -5.895424|    0.823774|    0.012458|
|          41|   -4.251841|   -5.913145|    0.823724|    0.012468|
|          42|   -4.252901|   -5.928234|    0.823665|    0.012479|
|          43|   -4.254021|   -5.940181|    0.823598|    0.012488|
|          44|   -4.255178|   -5.948881|    0.823523|    0.012497|
|          45|   -4.256341|   -5.954575|    0.823442|    0.012505|
|          46|   -4.257481|   -5.957699|    0.823355|    0.012512|
|          47|   -4.258559|   -5.958744|    0.823265|    0.012518|
|          48|   -4.259532|   -5.958293|    0.823172|    0.012521|
|          49|   -4.260356|   -5.956820|    0.823077|    0.012524|
|          50|   -4.260986|   -5.954786|    0.822982|    0.012524|
|          51|   -4.261388|   -5.952577|    0.822888|    0.012523|
|          52|   -4.261538|   -5.950484|    0.822796|    0.012519|
|          53|   -4.261431|   -5.948753|    0.822707|    0.012514|
|          54|   -4.261081|   -5.947578|    0.822621|    0.012508|
|          55|   -4.260517|   -5.947098|    0.822540|    0.012499|
|          56|   -4.259782|   -5.947377|    0.822463|    0.012489|
|          57|   -4.258921|   -5.948409|    0.822392|    0.012478|
|          58|   -4.257981|   -5.950196|    0.822326|    0.012465|
|          59|   -4.256997|   -5.952723|    0.822265|    0.012451|
|          60|   -4.255997|   -5.955929|    0.822210|    0.012436|
|          61|   -4.254996|   -5.959761|    0.822160|    0.012420|
|          62|   -4.254000|   -5.964184|    0.822115|    0.012403|
|          63|   -4.253010|   -5.969125|    0.822074|    0.012386|
|          64|   -4.252026|   -5.974537|    0.822038|    0.012369|
|          65|   -4.251049|   -5.980324|    0.822007|    0.012350|
|          66|   -4.250085|   -5.986378|    0.821979|    0.012332|
|          67|   -4.249148|   -5.992614|    0.821955|    0.012313|
|          68|   -4.248255|   -5.998956|    0.821934|    0.012294|
|          69|   -4.247426|   -6.005276|    0.821916|    0.012275|
|          70|   -4.246682|   -6.011509|    0.821901|    0.012256|
|          71|   -4.246041|   -6.017591|    0.821889|    0.012237|
|          72|   -4.245517|   -6.023458|    0.821879|    0.012218|
|          73|   -4.245118|   -6.029077|    0.821871|    0.012200|
|          74|   -4.244846|   -6.034437|    0.821865|    0.012181|
|          75|   -4.244701|   -6.039520|    0.821861|    0.012163|
|          76|   -4.244678|   -6.044331|    0.821859|    0.012145|
|          77|   -4.244772|   -6.048863|    0.821858|    0.012127|
|          78|   -4.244976|   -6.053129|    0.821858|    0.012110|
|          79|   -4.245285|   -6.057140|    0.821859|    0.012093|
|          80|   -4.245695|   -6.060889|    0.821861|    0.012076|
|          81|   -4.246200|   -6.064389|    0.821863|    0.012060|
|          82|   -4.246792|   -6.067650|    0.821866|    0.012044|
|          83|   -4.247461|   -6.070722|    0.821868|    0.012028|
|          84|   -4.248190|   -6.073614|    0.821870|    0.012012|
|          85|   -4.248960|   -6.076348|    0.821872|    0.011997|
|          86|   -4.249747|   -6.078959|    0.821873|    0.011982|
|          87|   -4.250521|   -6.081470|    0.821874|    0.011967|
|          88|   -4.251255|   -6.083916|    0.821875|    0.011953|
|          89|   -4.251920|   -6.086365|    0.821875|    0.011938|
|          90|   -4.252492|   -6.088878|    0.821874|    0.011924|
|          91|   -4.252954|   -6.091465|    0.821874|    0.011910|
|          92|   -4.253297|   -6.094154|    0.821873|    0.011896|
|          93|   -4.253524|   -6.096974|    0.821872|    0.011883|
|          94|   -4.253650|   -6.099937|    0.821871|    0.011870|
|          95|   -4.253700|   -6.103071|    0.821871|    0.011857|
|          96|   -4.253711|   -6.106383|    0.821872|    0.011844|
|          97|   -4.253725|   -6.109894|    0.821874|    0.011832|
|          98|   -4.253791|   -6.113613|    0.821877|    0.011821|
|          99|   -4.253959|   -6.117567|    0.821881|    0.011810|
|         100|   -4.254276|   -6.121769|    0.821887|    0.011800|
|         101|   -4.254786|   -6.126238|    0.821893|    0.011942|
+-----------------------------------------------------------------------+
|Fixed CL Mode                           |Value                         |
+-----------------------------------------------------------------------+
|Current CL                              |0.821893                      |
|Target CL                               |0.824                         |
|Previous AOA                            |2.7811                        |
|Changed AoA by                          |0.0105639                     |
+-----------------------------------------------------------------------+
+----------------------------------------------------------------+
|  Inner_Iter|    rms[Rho]|     rms[nu]|          CL|          CD|
+----------------------------------------------------------------+
|         102|   -2.169563|   -6.040601|    0.821903|    0.011933|
|         103|   -2.554454|   -6.086659|    0.821915|    0.011925|
|         104|   -2.800156|   -6.104904|    0.821929|    0.011918|
|         105|   -2.880240|   -6.117521|    0.821946|    0.011912|
|         106|   -2.934543|   -6.128485|    0.821964|    0.011907|
|         107|   -3.004797|   -6.138860|    0.821984|    0.011903|
|         108|   -3.091625|   -6.148842|    0.822007|    0.011900|
|         109|   -3.182041|   -6.158469|    0.822030|    0.011898|
|         110|   -3.259048|   -6.167833|    0.822055|    0.011897|
|         111|   -3.314116|   -6.176990|    0.822082|    0.011897|
|         112|   -3.349331|   -6.185911|    0.822109|    0.011897|
|         113|   -3.369137|   -6.194723|    0.822137|    0.011899|
|         114|   -3.377754|   -6.203617|    0.822166|    0.011902|
|         115|   -3.381068|   -6.212721|    0.822194|    0.011905|
|         116|   -3.385515|   -6.222058|    0.822223|    0.011909|
|         117|   -3.395342|   -6.231603|    0.822251|    0.011914|
|         118|   -3.411482|   -6.241296|    0.822278|    0.011920|
|         119|   -3.432101|   -6.251160|    0.822305|    0.011926|
|         120|   -3.454044|   -6.261208|    0.822331|    0.011932|
|         121|   -3.474635|   -6.271452|    0.822356|    0.011939|
|         122|   -3.492983|   -6.281792|    0.822380|    0.011947|
|         123|   -3.509922|   -6.292113|    0.822403|    0.011955|
|         124|   -3.526871|   -6.302311|    0.822424|    0.011963|
|         125|   -3.544728|   -6.312229|    0.822445|    0.011971|
|         126|   -3.563480|   -6.321719|    0.822464|    0.011980|
|         127|   -3.582409|   -6.330674|    0.822482|    0.011989|
|         128|   -3.600515|   -6.339022|    0.822499|    0.011998|
|         129|   -3.616850|   -6.346759|    0.822515|    0.012008|
|         130|   -3.630723|   -6.353888|    0.822530|    0.012018|
|         131|   -3.641835|   -6.360421|    0.822545|    0.012028|
|         132|   -3.650388|   -6.366367|    0.822560|    0.012038|
|         133|   -3.657090|   -6.371792|    0.822574|    0.012048|
|         134|   -3.662994|   -6.376753|    0.822588|    0.012058|
|         135|   -3.669231|   -6.381353|    0.822603|    0.012069|
|         136|   -3.676745|   -6.385628|    0.822618|    0.012080|
|         137|   -3.686124|   -6.389614|    0.822633|    0.012091|
|         138|   -3.697537|   -6.393190|    0.822650|    0.012102|
|         139|   -3.710722|   -6.396338|    0.822667|    0.012113|
|         140|   -3.725030|   -6.399063|    0.822686|    0.012125|
|         141|   -3.739514|   -6.401394|    0.822706|    0.012137|
|         142|   -3.753102|   -6.403292|    0.822727|    0.012148|
|         143|   -3.764862|   -6.404720|    0.822750|    0.012160|
|         144|   -3.774280|   -6.405683|    0.822775|    0.012172|
|         145|   -3.781424|   -6.406141|    0.822802|    0.012185|
|         146|   -3.786906|   -6.406104|    0.822831|    0.012197|
|         147|   -3.791649|   -6.405504|    0.822862|    0.012210|
|         148|   -3.796605|   -6.404348|    0.822895|    0.012222|
|         149|   -3.802517|   -6.402598|    0.822931|    0.012235|
|         150|   -3.809805|   -6.400254|    0.822969|    0.012248|
|         151|   -3.818535|   -6.397317|    0.823010|    0.012261|
|         152|   -3.828480|   -6.393828|    0.823054|    0.012274|
|         153|   -3.839203|   -6.389824|    0.823101|    0.012287|
|         154|   -3.850175|   -6.385389|    0.823151|    0.012300|
|         155|   -3.860890|   -6.380599|    0.823203|    0.012313|
|         156|   -3.870972|   -6.375586|    0.823259|    0.012325|
|         157|   -3.880229|   -6.370389|    0.823317|    0.012338|
|         158|   -3.888665|   -6.365115|    0.823378|    0.012351|
|         159|   -3.896435|   -6.359888|    0.823441|    0.012363|
|         160|   -3.903779|   -6.354787|    0.823507|    0.012376|
|         161|   -3.910944|   -6.349937|    0.823575|    0.012388|
|         162|   -3.918138|   -6.345429|    0.823645|    0.012399|
|         163|   -3.925492|   -6.341349|    0.823716|    0.012411|
|         164|   -3.933067|   -6.337810|    0.823789|    0.012422|
|         165|   -3.940861|   -6.334885|    0.823863|    0.012433|
|         166|   -3.948832|   -6.332642|    0.823938|    0.012443|
|         167|   -3.956924|   -6.331128|    0.824012|    0.012453|
|         168|   -3.965081|   -6.330363|    0.824087|    0.012462|
|         169|   -3.973257|   -6.330385|    0.824161|    0.012471|
|         170|   -3.981420|   -6.331207|    0.824233|    0.012479|
|         171|   -3.989544|   -6.332814|    0.824304|    0.012487|
|         172|   -3.997606|   -6.335178|    0.824372|    0.012494|
|         173|   -4.005580|   -6.338243|    0.824438|    0.012500|
|         174|   -4.013430|   -6.341932|    0.824501|    0.012506|
|         175|   -4.021111|   -6.346158|    0.824561|    0.012511|
|         176|   -4.028572|   -6.350791|    0.824616|    0.012515|
|         177|   -4.035755|   -6.355702|    0.824667|    0.012518|
|         178|   -4.042599|   -6.360740|    0.824714|    0.012521|
|         179|   -4.049051|   -6.365767|    0.824755|    0.012523|
|         180|   -4.055063|   -6.370640|    0.824792|    0.012524|
|         181|   -4.060596|   -6.375198|    0.824823|    0.012525|
|         182|   -4.065625|   -6.379319|    0.824848|    0.012524|
|         183|   -4.070140|   -6.382906|    0.824869|    0.012523|
|         184|   -4.074144|   -6.385896|    0.824883|    0.012521|
|         185|   -4.077656|   -6.388252|    0.824893|    0.012519|
|         186|   -4.080709|   -6.389991|    0.824896|    0.012516|
|         187|   -4.083347|   -6.391184|    0.824895|    0.012512|
|         188|   -4.085630|   -6.391914|    0.824888|    0.012508|
|         189|   -4.087622|   -6.392304|    0.824877|    0.012503|
|         190|   -4.089398|   -6.392484|    0.824861|    0.012497|
|         191|   -4.091032|   -6.392622|    0.824840|    0.012491|
|         192|   -4.092603|   -6.392850|    0.824816|    0.012485|
|         193|   -4.094182|   -6.393299|    0.824788|    0.012477|
|         194|   -4.095839|   -6.394105|    0.824756|    0.012470|
|         195|   -4.097634|   -6.395401|    0.824721|    0.012462|
|         196|   -4.099619|   -6.397310|    0.824684|    0.012454|
|         197|   -4.101833|   -6.399940|    0.824644|    0.012445|
|         198|   -4.104306|   -6.403384|    0.824602|    0.012436|
|         199|   -4.107057|   -6.407736|    0.824558|    0.012427|
|         200|   -4.110091|   -6.413036|    0.824513|    0.012418|
|         201|   -4.113401|   -6.419303|    0.824467|    0.012371|
+-----------------------------------------------------------------------+
|Fixed CL Mode                           |Value                         |
+-----------------------------------------------------------------------+
|Current CL                              |0.824467                      |
|Target CL                               |0.824                         |
|Previous AOA                            |2.79166                       |
|Changed AoA by                          |-0.00256307                   |
+-----------------------------------------------------------------------+
+----------------------------------------------------------------+
|  Inner_Iter|    rms[Rho]|     rms[nu]|          CL|          CD|
+----------------------------------------------------------------+
|         202|   -2.784273|   -6.402176|    0.824420|    0.012361|
|         203|   -3.168890|   -6.422126|    0.824373|    0.012351|
|         204|   -3.414116|   -6.434455|    0.824325|    0.012341|
|         205|   -3.492652|   -6.445928|    0.824278|    0.012331|
|         206|   -3.544218|   -6.457565|    0.824231|    0.012320|
|         207|   -3.610071|   -6.469511|    0.824185|    0.012310|
|         208|   -3.689528|   -6.481668|    0.824140|    0.012300|
|         209|   -3.768380|   -6.493866|    0.824097|    0.012289|
|         210|   -3.830466|   -6.505899|    0.824055|    0.012279|
|         211|   -3.870347|   -6.517521|    0.824015|    0.012269|
|         212|   -3.892793|   -6.528454|    0.823976|    0.012259|
|         213|   -3.903661|   -6.538454|    0.823941|    0.012249|
|         214|   -3.907389|   -6.547311|    0.823907|    0.012239|
|         215|   -3.908484|   -6.554850|    0.823876|    0.012230|
|         216|   -3.911170|   -6.560927|    0.823848|    0.012221|
|         217|   -3.917926|   -6.565441|    0.823823|    0.012212|
|         218|   -3.928866|   -6.568372|    0.823802|    0.012203|
|         219|   -3.942229|   -6.569796|    0.823783|    0.012195|
|         220|   -3.955572|   -6.569854|    0.823768|    0.012187|
|         221|   -3.967086|   -6.568809|    0.823756|    0.012180|
|         222|   -3.976336|   -6.566854|    0.823748|    0.012173|
|         223|   -3.984017|   -6.564209|    0.823744|    0.012167|
|         224|   -3.991148|   -6.561122|    0.823743|    0.012161|
|         225|   -3.998420|   -6.557844|    0.823745|    0.012155|
|         226|   -4.006019|   -6.554610|    0.823751|    0.012150|
|         227|   -4.013789|   -6.551633|    0.823761|    0.012145|
|         228|   -4.021443|   -6.549101|    0.823773|    0.012141|
|         229|   -4.028704|   -6.547168|    0.823790|    0.012138|
|         230|   -4.035355|   -6.545954|    0.823809|    0.012135|
|         231|   -4.041277|   -6.545557|    0.823831|    0.012132|
|         232|   -4.046487|   -6.546046|    0.823856|    0.012130|
|         233|   -4.051170|   -6.547459|    0.823884|    0.012129|
|         234|   -4.055647|   -6.549826|    0.823914|    0.012128|
|         235|   -4.060303|   -6.553147|    0.823946|    0.012128|
|         236|   -4.065493|   -6.557397|    0.823980|    0.012128|
|         237|   -4.071467|   -6.562527|    0.824015|    0.012128|
|         238|   -4.078324|   -6.568476|    0.824052|    0.012129|
|         239|   -4.086006|   -6.575148|    0.824090|    0.012130|
|         240|   -4.094311|   -6.582421|    0.824129|    0.012132|
|         241|   -4.102934|   -6.590147|    0.824168|    0.012134|
|         242|   -4.111532|   -6.598154|    0.824207|    0.012137|
|         243|   -4.119803|   -6.606242|    0.824247|    0.012139|
|         244|   -4.127551|   -6.614193|    0.824285|    0.012142|
|         245|   -4.134737|   -6.621788|    0.824323|    0.012145|
|         246|   -4.141466|   -6.628807|    0.824360|    0.012149|
|         247|   -4.147943|   -6.635044|    0.824396|    0.012152|
|         248|   -4.154400|   -6.640310|    0.824430|    0.012156|
|         249|   -4.161032|   -6.644469|    0.824463|    0.012160|
|         250|   -4.167944|   -6.647437|    0.824493|    0.012163|
|         251|   -4.175142|   -6.649197|    0.824522|    0.012167|
|         252|   -4.182542|   -6.649790|    0.824548|    0.012171|
|         253|   -4.189995|   -6.649313|    0.824571|    0.012175|
|         254|   -4.197335|   -6.647905|    0.824592|    0.012179|
|         255|   -4.204408|   -6.645741|    0.824610|    0.012183|
|         256|   -4.211106|   -6.643005|    0.824625|    0.012186|
|         257|   -4.217378|   -6.639893|    0.824637|    0.012190|
|         258|   -4.223227|   -6.636593|    0.824647|    0.012193|
|         259|   -4.228697|   -6.633280|    0.824654|    0.012197|
|         260|   -4.233852|   -6.630100|    0.824658|    0.012200|
|         261|   -4.238756|   -6.627156|    0.824659|    0.012203|
|         262|   -4.243457|   -6.624523|    0.824658|    0.012206|
|         263|   -4.247980|   -6.622240|    0.824655|    0.012209|
|         264|   -4.252329|   -6.620315|    0.824649|    0.012212|
|         265|   -4.256489|   -6.618727|    0.824642|    0.012214|
|         266|   -4.260430|   -6.617430|    0.824633|    0.012217|
|         267|   -4.264118|   -6.616355|    0.824622|    0.012219|
|         268|   -4.267517|   -6.615416|    0.824610|    0.012221|
|         269|   -4.270595|   -6.614508|    0.824596|    0.012223|
|         270|   -4.273319|   -6.613523|    0.824582|    0.012225|
|         271|   -4.275664|   -6.612346|    0.824568|    0.012228|
|         272|   -4.277607|   -6.610865|    0.824553|    0.012229|
|         273|   -4.279125|   -6.608985|    0.824539|    0.012231|
|         274|   -4.280205|   -6.606623|    0.824524|    0.012233|
|         275|   -4.280834|   -6.603720|    0.824510|    0.012235|
|         276|   -4.281009|   -6.600250|    0.824497|    0.012237|
|         277|   -4.280732|   -6.596217|    0.824484|    0.012239|
|         278|   -4.280016|   -6.591657|    0.824472|    0.012241|
|         279|   -4.278881|   -6.586633|    0.824462|    0.012243|
|         280|   -4.277354|   -6.581228|    0.824453|    0.012244|
|         281|   -4.275470|   -6.575543|    0.824445|    0.012246|
|         282|   -4.273271|   -6.569686|    0.824438|    0.012248|
|         283|   -4.270801|   -6.563772|    0.824433|    0.012250|
|         284|   -4.268110|   -6.557908|    0.824430|    0.012252|
|         285|   -4.265246|   -6.552200|    0.824428|    0.012254|
|         286|   -4.262259|   -6.546743|    0.824427|    0.012256|
|         287|   -4.259198|   -6.541609|    0.824428|    0.012257|
|         288|   -4.256109|   -6.536867|    0.824430|    0.012259|
|         289|   -4.253037|   -6.532570|    0.824433|    0.012261|
|         290|   -4.250023|   -6.528758|    0.824438|    0.012262|
|         291|   -4.247104|   -6.525449|    0.824443|    0.012264|
|         292|   -4.244314|   -6.522648|    0.824450|    0.012265|
|         293|   -4.241682|   -6.520342|    0.824457|    0.012267|
|         294|   -4.239234|   -6.518508|    0.824465|    0.012268|
|         295|   -4.236993|   -6.517110|    0.824474|    0.012269|
|         296|   -4.234974|   -6.516106|    0.824483|    0.012270|
|         297|   -4.233194|   -6.515444|    0.824493|    0.012270|
|         298|   -4.231663|   -6.515073|    0.824503|    0.012271|
|         299|   -4.230389|   -6.514939|    0.824513|    0.012271|
|         300|   -4.229379|   -6.514981|    0.824523|    0.012271|
|         301|   -4.228636|   -6.515145|    0.824534|    0.012233|
+-----------------------------------------------------------------------+
|Fixed CL Mode                           |Value                         |
+-----------------------------------------------------------------------+
|Current CL                              |0.824534                      |
|Target CL                               |0.824                         |
|Previous AOA                            |2.7891                        |
|Changed AoA by                          |-0.00261643                   |
+-----------------------------------------------------------------------+
+----------------------------------------------------------------+
|  Inner_Iter|    rms[Rho]|     rms[nu]|          CL|          CD|
+----------------------------------------------------------------+
|         302|   -2.775349|   -6.477460|    0.824545|    0.012233|
|         303|   -3.158713|   -6.496335|    0.824555|    0.012232|
|         304|   -3.400785|   -6.502361|    0.824566|    0.012232|
|         305|   -3.478707|   -6.505670|    0.824576|    0.012231|
|         306|   -3.531086|   -6.507880|    0.824586|    0.012229|
|         307|   -3.597986|   -6.509397|    0.824596|    0.012228|
|         308|   -3.679015|   -6.510385|    0.824606|    0.012226|
|         309|   -3.760885|   -6.510967|    0.824615|    0.012224|
|         310|   -3.828144|   -6.511230|    0.824625|    0.012222|
|         311|   -3.874848|   -6.511232|    0.824634|    0.012220|
|         312|   -3.904408|   -6.511028|    0.824643|    0.012217|
|         313|   -3.921359|   -6.510701|    0.824652|    0.012215|
|         314|   -3.929366|   -6.510342|    0.824660|    0.012212|
|         315|   -3.933074|   -6.510022|    0.824669|    0.012209|
|         316|   -3.937510|   -6.509777|    0.824677|    0.012205|
|         317|   -3.946024|   -6.509620|    0.824685|    0.012202|
|         318|   -3.959317|   -6.509566|    0.824693|    0.012199|
|         319|   -3.975897|   -6.509634|    0.824701|    0.012195|
|         320|   -3.993339|   -6.509851|    0.824709|    0.012191|
|         321|   -4.009728|   -6.510232|    0.824717|    0.012187|
|         322|   -4.024533|   -6.510783|    0.824724|    0.012184|
|         323|   -4.038416|   -6.511502|    0.824732|    0.012180|
|         324|   -4.052351|   -6.512384|    0.824739|    0.012176|
|         325|   -4.066864|   -6.513423|    0.824746|    0.012172|
|         326|   -4.081810|   -6.514618|    0.824753|    0.012168|
|         327|   -4.096579|   -6.515971|    0.824760|    0.012164|
|         328|   -4.110431|   -6.517483|    0.824767|    0.012161|
|         329|   -4.122748|   -6.519158|    0.824774|    0.012157|
|         330|   -4.133151|   -6.520999|    0.824781|    0.012153|
|         331|   -4.141559|   -6.523009|    0.824787|    0.012150|
|         332|   -4.148211|   -6.525193|    0.824793|    0.012146|
|         333|   -4.153628|   -6.527551|    0.824799|    0.012143|
|         334|   -4.158504|   -6.530074|    0.824805|    0.012140|
|         335|   -4.163535|   -6.532749|    0.824810|    0.012137|
|         336|   -4.169268|   -6.535568|    0.824815|    0.012134|
|         337|   -4.175995|   -6.538514|    0.824820|    0.012131|
|         338|   -4.183724|   -6.541567|    0.824825|    0.012128|
|         339|   -4.192193|   -6.544724|    0.824829|    0.012126|
|         340|   -4.200930|   -6.547966|    0.824833|    0.012124|
|         341|   -4.209336|   -6.551276|    0.824836|    0.012122|
|         342|   -4.216820|   -6.554643|    0.824839|    0.012120|
|         343|   -4.222941|   -6.558056|    0.824842|    0.012118|
|         344|   -4.227522|   -6.561509|    0.824844|    0.012117|
|         345|   -4.230689|   -6.564993|    0.824846|    0.012115|
|         346|   -4.232817|   -6.568505|    0.824847|    0.012114|
|         347|   -4.234401|   -6.572045|    0.824848|    0.012113|
|         348|   -4.235915|   -6.575617|    0.824849|    0.012113|
|         349|   -4.237710|   -6.579215|    0.824848|    0.012112|
|         350|   -4.239959|   -6.582840|    0.824848|    0.012112|
|         351|   -4.242661|   -6.586494|    0.824846|    0.012112|
|         352|   -4.245681|   -6.590181|    0.824844|    0.012112|
|         353|   -4.248812|   -6.593904|    0.824841|    0.012112|
|         354|   -4.251835|   -6.597670|    0.824838|    0.012112|
|         355|   -4.254577|   -6.601482|    0.824834|    0.012112|
|         356|   -4.256941|   -6.605336|    0.824829|    0.012113|
|         357|   -4.258918|   -6.609228|    0.824823|    0.012114|
|         358|   -4.260570|   -6.613167|    0.824816|    0.012114|
|         359|   -4.262006|   -6.617156|    0.824809|    0.012115|
|         360|   -4.263352|   -6.621202|    0.824801|    0.012116|
|         361|   -4.264728|   -6.625316|    0.824792|    0.012117|
|         362|   -4.266225|   -6.629513|    0.824783|    0.012118|
|         363|   -4.267912|   -6.633802|    0.824773|    0.012119|
|         364|   -4.269825|   -6.638200|    0.824762|    0.012121|
|         365|   -4.271984|   -6.642717|    0.824751|    0.012122|
|         366|   -4.274400|   -6.647372|    0.824739|    0.012123|
|         367|   -4.277077|   -6.652182|    0.824727|    0.012124|
|         368|   -4.280022|   -6.657157|    0.824714|    0.012126|
|         369|   -4.283245|   -6.662306|    0.824701|    0.012127|
|         370|   -4.286761|   -6.667651|    0.824688|    0.012128|
|         371|   -4.290582|   -6.673202|    0.824675|    0.012130|
|         372|   -4.294724|   -6.678970|    0.824661|    0.012131|
|         373|   -4.299197|   -6.684960|    0.824648|    0.012132|
|         374|   -4.304010|   -6.691175|    0.824635|    0.012134|
|         375|   -4.309165|   -6.697605|    0.824623|    0.012135|
|         376|   -4.314663|   -6.704239|    0.824610|    0.012136|
|         377|   -4.320499|   -6.711060|    0.824599|    0.012138|
|         378|   -4.326666|   -6.718040|    0.824587|    0.012139|
|         379|   -4.333153|   -6.725147|    0.824577|    0.012140|
|         380|   -4.339948|   -6.732341|    0.824566|    0.012141|
|         381|   -4.347034|   -6.739577|    0.824557|    0.012142|
|         382|   -4.354393|   -6.746797|    0.824548|    0.012143|
|         383|   -4.362003|   -6.753945|    0.824541|    0.012144|
|         384|   -4.369838|   -6.760954|    0.824534|    0.012145|
|         385|   -4.377870|   -6.767750|    0.824527|    0.012146|
|         386|   -4.386064|   -6.774258|    0.824522|    0.012146|
|         387|   -4.394383|   -6.780411|    0.824517|    0.012147|
|         388|   -4.402787|   -6.786162|    0.824514|    0.012148|
|         389|   -4.411229|   -6.791490|    0.824511|    0.012148|
|         390|   -4.419662|   -6.796383|    0.824509|    0.012148|
|         391|   -4.428031|   -6.800848|    0.824507|    0.012149|
|         392|   -4.436283|   -6.804911|    0.824506|    0.012149|
|         393|   -4.444358|   -6.808613|    0.824506|    0.012149|
|         394|   -4.452198|   -6.812011|    0.824507|    0.012149|
|         395|   -4.459742|   -6.815182|    0.824508|    0.012149|
|         396|   -4.466932|   -6.818208|    0.824510|    0.012149|
|         397|   -4.473709|   -6.821175|    0.824512|    0.012149|
|         398|   -4.480021|   -6.824172|    0.824515|    0.012148|
|         399|   -4.485820|   -6.827292|    0.824518|    0.012148|
|         400|   -4.491063|   -6.830623|    0.824522|    0.012148|
|         401|   -4.495721|   -6.834247|    0.824526|    0.012110|
+-----------------------------------------------------------------------+
|Fixed CL Mode                           |Value                         |
+-----------------------------------------------------------------------+
|Current CL                              |0.824526                      |
|Target CL                               |0.824                         |
|Previous AOA                            |2.78648                       |
|Changed AoA by                          |-0.00260813                   |
+-----------------------------------------------------------------------+
+----------------------------------------------------------------+
|  Inner_Iter|    rms[Rho]|     rms[nu]|          CL|          CD|
+----------------------------------------------------------------+
|         402|   -2.776993|   -6.706991|    0.824530|    0.012109|
|         403|   -3.160796|   -6.767676|    0.824535|    0.012108|
|         404|   -3.403042|   -6.791694|    0.824540|    0.012108|
|         405|   -3.480992|   -6.807892|    0.824545|    0.012107|
|         406|   -3.534305|   -6.821581|    0.824550|    0.012107|
|         407|   -3.603453|   -6.834046|    0.824555|    0.012106|
|         408|   -3.688733|   -6.845697|    0.824560|    0.012105|
|         409|   -3.777494|   -6.856789|    0.824566|    0.012105|
|         410|   -3.853632|   -6.867463|    0.824571|    0.012104|
|         411|   -3.909171|   -6.877710|    0.824576|    0.012103|
|         412|   -3.945809|   -6.887508|    0.824581|    0.012103|
|         413|   -3.967265|   -6.897003|    0.824587|    0.012102|
|         414|   -3.977181|   -6.906438|    0.824591|    0.012102|
|         415|   -3.981109|   -6.915976|    0.824596|    0.012101|
|         416|   -3.985389|   -6.925614|    0.824601|    0.012100|
|         417|   -3.994311|   -6.935228|    0.824605|    0.012100|
|         418|   -4.008900|   -6.944716|    0.824608|    0.012100|
|         419|   -4.027480|   -6.954031|    0.824612|    0.012099|
|         420|   -4.047149|   -6.963194|    0.824615|    0.012099|
|         421|   -4.065531|   -6.972202|    0.824618|    0.012098|
|         422|   -4.081928|   -6.980993|    0.824620|    0.012098|
|         423|   -4.097160|   -6.989422|    0.824622|    0.012098|
|         424|   -4.112475|   -6.997295|    0.824623|    0.012098|
|         425|   -4.128565|   -7.004417|    0.824624|    0.012098|
|         426|   -4.145267|   -7.010631|    0.824625|    0.012097|
|         427|   -4.161811|   -7.015833|    0.824625|    0.012097|
|         428|   -4.177246|   -7.019985|    0.824625|    0.012097|
|         429|   -4.190770|   -7.023093|    0.824624|    0.012097|
|         430|   -4.201901|   -7.025159|    0.824623|    0.012097|
|         431|   -4.210558|   -7.026340|    0.824621|    0.012097|
|         432|   -4.217092|   -7.026755|    0.824619|    0.012097|
|         433|   -4.222239|   -7.026539|    0.824617|    0.012098|
|         434|   -4.226952|   -7.025830|    0.824614|    0.012098|
|         435|   -4.232187|   -7.024740|    0.824611|    0.012098|
|         436|   -4.238695|   -7.023341|    0.824607|    0.012098|
|         437|   -4.246907|   -7.021713|    0.824603|    0.012099|
|         438|   -4.256895|   -7.019915|    0.824599|    0.012099|
|         439|   -4.268379|   -7.017989|    0.824594|    0.012100|
|         440|   -4.280782|   -7.015951|    0.824589|    0.012100|
|         441|   -4.293320|   -7.013819|    0.824584|    0.012101|
|         442|   -4.305155|   -7.011614|    0.824578|    0.012101|
|         443|   -4.315591|   -7.009367|    0.824572|    0.012102|
|         444|   -4.324279|   -7.007103|    0.824566|    0.012103|
|         445|   -4.331310|   -7.004844|    0.824560|    0.012104|
|         446|   -4.337174|   -7.002613|    0.824553|    0.012105|
|         447|   -4.342591|   -7.000414|    0.824546|    0.012106|
|         448|   -4.348298|   -6.998246|    0.824539|    0.012107|
|         449|   -4.354873|   -6.996128|    0.824532|    0.012108|
|         450|   -4.362644|   -6.993996|    0.824524|    0.012109|
|         451|   -4.371668|   -6.991817|    0.824515|    0.012110|
|         452|   -4.381764|   -6.989568|    0.824506|    0.012111|
|         453|   -4.392594|   -6.987247|    0.824497|    0.012112|
|         454|   -4.403742|   -6.984817|    0.824487|    0.012114|
|         455|   -4.414815|   -6.982289|    0.824477|    0.012115|
|         456|   -4.425515|   -6.979572|    0.824466|    0.012116|
|         457|   -4.435687|   -6.976620|    0.824455|    0.012118|
|         458|   -4.445318|   -6.973457|    0.824442|    0.012119|
|         459|   -4.454513|   -6.970066|    0.824430|    0.012121|
|         460|   -4.463440|   -6.966479|    0.824416|    0.012122|
|         461|   -4.472276|   -6.962770|    0.824403|    0.012124|
|         462|   -4.481167|   -6.958989|    0.824388|    0.012125|
|         463|   -4.490201|   -6.955219|    0.824373|    0.012126|
|         464|   -4.499409|   -6.951559|    0.824358|    0.012128|
|         465|   -4.508773|   -6.948089|    0.824342|    0.012129|
|         466|   -4.518242|   -6.944892|    0.824326|    0.012131|
|         467|   -4.527754|   -6.942078|    0.824309|    0.012132|
|         468|   -4.537247|   -6.939740|    0.824293|    0.012133|
|         469|   -4.546667|   -6.937961|    0.824276|    0.012135|
|         470|   -4.555973|   -6.936824|    0.824259|    0.012136|
|         471|   -4.565132|   -6.936398|    0.824242|    0.012137|
|         472|   -4.574114|   -6.936733|    0.824226|    0.012138|
|         473|   -4.582888|   -6.937861|    0.824210|    0.012139|
|         474|   -4.591419|   -6.939795|    0.824194|    0.012140|
|         475|   -4.599666|   -6.942525|    0.824179|    0.012141|
|         476|   -4.607584|   -6.946012|    0.824164|    0.012142|
|         477|   -4.615131|   -6.950193|    0.824151|    0.012143|
|         478|   -4.622265|   -6.954975|    0.824138|    0.012144|
|         479|   -4.628957|   -6.960236|    0.824126|    0.012145|
|         480|   -4.635186|   -6.965825|    0.824115|    0.012145|
|         481|   -4.640945|   -6.971566|    0.824106|    0.012146|
|         482|   -4.646240|   -6.977256|    0.824098|    0.012147|
|         483|   -4.651090|   -6.982685|    0.824090|    0.012147|
|         484|   -4.655527|   -6.987637|    0.824085|    0.012147|
|         485|   -4.659592|   -6.991909|    0.824080|    0.012148|
|         486|   -4.663334|   -6.995318|    0.824077|    0.012148|
|         487|   -4.666809|   -6.997721|    0.824075|    0.012148|
|         488|   -4.670075|   -6.999027|    0.824074|    0.012148|
|         489|   -4.673197|   -6.999213|    0.824075|    0.012147|
|         490|   -4.676237|   -6.998317|    0.824077|    0.012147|
|         491|   -4.679256|   -6.996438|    0.824080|    0.012147|
|         492|   -4.682313|   -6.993732|    0.824085|    0.012146|
|         493|   -4.685463|   -6.990387|    0.824090|    0.012146|
|         494|   -4.688756|   -6.986613|    0.824096|    0.012145|
|         495|   -4.692234|   -6.982624|    0.824104|    0.012144|
|         496|   -4.695935|   -6.978626|    0.824112|    0.012143|
|         497|   -4.699887|   -6.974804|    0.824121|    0.012142|
|         498|   -4.704114|   -6.971318|    0.824131|    0.012141|
|         499|   -4.708631|   -6.968301|    0.824142|    0.012140|
|         500|   -4.713446|   -6.965854|    0.824153|    0.012138|
|         501|   -4.718559|   -6.964047|    0.824165|    0.012126|
+-----------------------------------------------------------------------+
|Fixed CL Mode                           |Value                         |
+-----------------------------------------------------------------------+
|Current CL                              |0.824165                      |
|Target CL                               |0.824                         |
|Previous AOA                            |2.78387                       |
|Changed AoA by                          |-0.000764826                  |
+-----------------------------------------------------------------------+
+----------------------------------------------------------------+
|  Inner_Iter|    rms[Rho]|     rms[nu]|          CL|          CD|
+----------------------------------------------------------------+
|         502|   -3.309514|   -6.936613|    0.824177|    0.012124|
|         503|   -3.690873|   -6.949017|    0.824189|    0.012122|
|         504|   -3.926177|   -6.953066|    0.824202|    0.012121|
|         505|   -4.000200|   -6.956016|    0.824215|    0.012119|
|         506|   -4.051515|   -6.958943|    0.824228|    0.012117|
|         507|   -4.118006|   -6.962017|    0.824241|    0.012115|
|         508|   -4.199198|   -6.965212|    0.824254|    0.012113|
|         509|   -4.282937|   -6.968456|    0.824267|    0.012111|
|         510|   -4.354975|   -6.971649|    0.824280|    0.012109|
|         511|   -4.408983|   -6.974674|    0.824293|    0.012107|
|         512|   -4.446634|   -6.977420|    0.824305|    0.012104|
|         513|   -4.470705|   -6.979805|    0.824317|    0.012102|
|         514|   -4.483745|   -6.981777|    0.824328|    0.012100|
|         515|   -4.490296|   -6.983295|    0.824339|    0.012098|
|         516|   -4.496092|   -6.984323|    0.824349|    0.012095|
|         517|   -4.505321|   -6.984838|    0.824359|    0.012093|
|         518|   -4.519236|   -6.984853|    0.824368|    0.012091|
|         519|   -4.536575|   -6.984412|    0.824376|    0.012089|
|         520|   -4.554941|   -6.983587|    0.824384|    0.012086|
|         521|   -4.572382|   -6.982466|    0.824391|    0.012084|
|         522|   -4.588356|   -6.981142|    0.824397|    0.012082|
|         523|   -4.603534|   -6.979702|    0.824402|    0.012080|
|         524|   -4.618856|   -6.978230|    0.824407|    0.012078|
|         525|   -4.634700|   -6.976809|    0.824411|    0.012076|
|         526|   -4.650670|   -6.975510|    0.824414|    0.012074|
|         527|   -4.665867|   -6.974404|    0.824416|    0.012072|
|         528|   -4.679326|   -6.973549|    0.824418|    0.012070|
|         529|   -4.690347|   -6.972993|    0.824418|    0.012068|
|         530|   -4.698649|   -6.972770|    0.824419|    0.012066|
|         531|   -4.704392|   -6.972899|    0.824418|    0.012065|
|         532|   -4.708115|   -6.973383|    0.824417|    0.012063|
|         533|   -4.710625|   -6.974214|    0.824415|    0.012062|
|         534|   -4.712816|   -6.975367|    0.824413|    0.012060|
|         535|   -4.715480|   -6.976805|    0.824410|    0.012059|
|         536|   -4.719163|   -6.978479|    0.824406|    0.012058|
|         537|   -4.724098|   -6.980336|    0.824402|    0.012057|
|         538|   -4.730203|   -6.982316|    0.824398|    0.012056|
|         539|   -4.737131|   -6.984360|    0.824393|    0.012055|
|         540|   -4.744343|   -6.986410|    0.824388|    0.012055|
|         541|   -4.751217|   -6.988418|    0.824383|    0.012054|
|         542|   -4.757183|   -6.990343|    0.824378|    0.012054|
|         543|   -4.761861|   -6.992155|    0.824372|    0.012054|
|         544|   -4.765162|   -6.993838|    0.824366|    0.012054|
|         545|   -4.767303|   -6.995388|    0.824361|    0.012054|
|         546|   -4.768729|   -6.996813|    0.824355|    0.012055|
|         547|   -4.769982|   -6.998132|    0.824349|    0.012055|
|         548|   -4.771559|   -6.999373|    0.824343|    0.012056|
|         549|   -4.773818|   -7.000568|    0.824336|    0.012057|
|         550|   -4.776934|   -7.001756|    0.824330|    0.012058|
|         551|   -4.780905|   -7.002973|    0.824324|    0.012059|
|         552|   -4.785592|   -7.004250|    0.824318|    0.012061|
|         553|   -4.790779|   -7.005616|    0.824312|    0.012062|
|         554|   -4.796228|   -7.007098|    0.824306|    0.012064|
|         555|   -4.801739|   -7.008701|    0.824300|    0.012066|
|         556|   -4.807180|   -7.010422|    0.824293|    0.012068|
|         557|   -4.812499|   -7.012249|    0.824287|    0.012070|
|         558|   -4.817719|   -7.014157|    0.824281|    0.012073|
|         559|   -4.822911|   -7.016112|    0.824274|    0.012075|
|         560|   -4.828168|   -7.018074|    0.824267|    0.012078|
|         561|   -4.833575|   -7.019996|    0.824261|    0.012080|
|         562|   -4.839197|   -7.021828|    0.824254|    0.012083|
|         563|   -4.845066|   -7.023523|    0.824247|    0.012086|
|         564|   -4.851181|   -7.025038|    0.824240|    0.012089|
|         565|   -4.857522|   -7.026339|    0.824233|    0.012092|
|         566|   -4.864048|   -7.027402|    0.824225|    0.012095|
|         567|   -4.870715|   -7.028218|    0.824218|    0.012099|
|         568|   -4.877478|   -7.028796|    0.824210|    0.012102|
|         569|   -4.884290|   -7.029157|    0.824202|    0.012105|
|         570|   -4.891110|   -7.029341|    0.824194|    0.012108|
|         571|   -4.897896|   -7.029396|    0.824186|    0.012112|
|         572|   -4.904602|   -7.029384|    0.824178|    0.012115|
|         573|   -4.911182|   -7.029370|    0.824170|    0.012118|
|         574|   -4.917580|   -7.029423|    0.824161|    0.012121|
|         575|   -4.923738|   -7.029610|    0.824153|    0.012125|
|         576|   -4.929595|   -7.029995|    0.824145|    0.012128|
|         577|   -4.935088|   -7.030629|    0.824136|    0.012131|
|         578|   -4.940159|   -7.031553|    0.824128|    0.012134|
|         579|   -4.944756|   -7.032799|    0.824120|    0.012137|
|         580|   -4.948833|   -7.034381|    0.824112|    0.012140|
|         581|   -4.952360|   -7.036301|    0.824104|    0.012143|
|         582|   -4.955319|   -7.038546|    0.824096|    0.012146|
|         583|   -4.957705|   -7.041085|    0.824089|    0.012148|
|         584|   -4.959529|   -7.043876|    0.824081|    0.012151|
|         585|   -4.960817|   -7.046863|    0.824074|    0.012153|
|         586|   -4.961606|   -7.049978|    0.824068|    0.012156|
|         587|   -4.961948|   -7.053147|    0.824061|    0.012158|
|         588|   -4.961901|   -7.056291|    0.824055|    0.012160|
|         589|   -4.961532|   -7.059327|    0.824049|    0.012162|
|         590|   -4.960913|   -7.062178|    0.824044|    0.012164|
|         591|   -4.960117|   -7.064771|    0.824039|    0.012165|
|         592|   -4.959218|   -7.067047|    0.824034|    0.012167|
|         593|   -4.958290|   -7.068961|    0.824030|    0.012168|
|         594|   -4.957401|   -7.070484|    0.824026|    0.012169|
|         595|   -4.956616|   -7.071606|    0.824023|    0.012170|
|         596|   -4.955996|   -7.072334|    0.824019|    0.012171|
|         597|   -4.955594|   -7.072693|    0.824017|    0.012172|
|         598|   -4.955460|   -7.072719|    0.824014|    0.012173|
|         599|   -4.955634|   -7.072462|    0.824012|    0.012173|
|         600|   -4.956153|   -7.071979|    0.824011|    0.012174|
|         601|   -4.957048|   -7.071325|    0.824009|    0.012173|
+-----------------------------------------------------------------------+
|Fixed CL Mode                           |Value                         |
+-----------------------------------------------------------------------+
|Current CL                              |0.824009                      |
|Target CL                               |0.824                         |
|Previous AOA                            |2.78311                       |
|Changed AoA by                          |-5.31482e-05                  |
+-----------------------------------------------------------------------+
+----------------------------------------------------------------+
|  Inner_Iter|    rms[Rho]|     rms[nu]|          CL|          CD|
+----------------------------------------------------------------+
|         602|   -4.447047|   -7.070305|    0.824008|    0.012173|
|         603|   -4.742674|   -7.069580|    0.824008|    0.012173|
|         604|   -4.848815|   -7.068761|    0.824007|    0.012173|
|         605|   -4.870247|   -7.067947|    0.824007|    0.012173|
|         606|   -4.886615|   -7.067172|    0.824007|    0.012172|
|         607|   -4.906864|   -7.066446|    0.824007|    0.012171|
|         608|   -4.928092|   -7.065770|    0.824008|    0.012171|
|         609|   -4.947011|   -7.065137|    0.824009|    0.012170|
|         610|   -4.962472|   -7.064530|    0.824009|    0.012169|
|         611|   -4.975076|   -7.063928|    0.824010|    0.012168|
|         612|   -4.985728|   -7.063307|    0.824011|    0.012167|
|         613|   -4.994950|   -7.062642|    0.824012|    0.012166|
|         614|   -5.003023|   -7.061913|    0.824014|    0.012164|
|         615|   -5.010256|   -7.061097|    0.824015|    0.012163|
|         616|   -5.017030|   -7.060180|    0.824016|    0.012161|
|         617|   -5.023680|   -7.059155|    0.824017|    0.012160|
|         618|   -5.030387|   -7.058022|    0.824018|    0.012158|
|         619|   -5.037173|   -7.056791|    0.824019|    0.012156|
|         620|   -5.043972|   -7.055477|    0.824021|    0.012155|
|         621|   -5.050705|   -7.054102|    0.824021|    0.012153|
|         622|   -5.057313|   -7.052697|    0.824022|    0.012151|
|         623|   -5.063744|   -7.051297|    0.824023|    0.012149|
|         624|   -5.069924|   -7.049937|    0.824024|    0.012147|
|         625|   -5.075746|   -7.048656|    0.824025|    0.012145|
|         626|   -5.081089|   -7.047491|    0.824025|    0.012143|
|         627|   -5.085851|   -7.046477|    0.824026|    0.012141|
|         628|   -5.089977|   -7.045647|    0.824026|    0.012138|
|         629|   -5.093467|   -7.045031|    0.824026|    0.012136|
|         630|   -5.096368|   -7.044652|    0.824027|    0.012134|
|         631|   -5.098761|   -7.044528|    0.824027|    0.012132|
|         632|   -5.100741|   -7.044671|    0.824027|    0.012130|
|         633|   -5.102406|   -7.045089|    0.824027|    0.012127|
|         634|   -5.103842|   -7.045782|    0.824027|    0.012125|
|         635|   -5.105119|   -7.046746|    0.824028|    0.012123|
|         636|   -5.106284|   -7.047973|    0.824028|    0.012121|
|         637|   -5.107370|   -7.049447|    0.824028|    0.012119|
|         638|   -5.108396|   -7.051152|    0.824028|    0.012117|
|         639|   -5.109375|   -7.053068|    0.824029|    0.012115|
|         640|   -5.110320|   -7.055176|    0.824029|    0.012113|
|         641|   -5.111251|   -7.057454|    0.824030|    0.012111|
|         642|   -5.112193|   -7.059884|    0.824030|    0.012109|
|         643|   -5.113180|   -7.062447|    0.824031|    0.012107|
|         644|   -5.114251|   -7.065130|    0.824032|    0.012106|
|         645|   -5.115450|   -7.067920|    0.824033|    0.012104|
|         646|   -5.116819|   -7.070809|    0.824034|    0.012103|
|         647|   -5.118398|   -7.073792|    0.824036|    0.012101|
|         648|   -5.120217|   -7.076868|    0.824037|    0.012100|
|         649|   -5.122297|   -7.080038|    0.824039|    0.012099|
|         650|   -5.124651|   -7.083307|    0.824041|    0.012098|
|         651|   -5.127278|   -7.086682|    0.824042|    0.012097|
|         652|   -5.130174|   -7.090171|    0.824045|    0.012096|
|         653|   -5.133327|   -7.093783|    0.824047|    0.012095|
|         654|   -5.136724|   -7.097527|    0.824049|    0.012094|
|         655|   -5.140349|   -7.101414|    0.824051|    0.012094|
|         656|   -5.144188|   -7.105453|    0.824054|    0.012093|
|         657|   -5.148225|   -7.109654|    0.824056|    0.012093|
|         658|   -5.152446|   -7.114021|    0.824059|    0.012093|
|         659|   -5.156837|   -7.118560|    0.824061|    0.012093|
|         660|   -5.161383|   -7.123273|    0.824064|    0.012093|
|         661|   -5.166067|   -7.128160|    0.824067|    0.012093|
|         662|   -5.170874|   -7.133221|    0.824069|    0.012093|
|         663|   -5.175786|   -7.138450|    0.824072|    0.012094|
|         664|   -5.180785|   -7.143841|    0.824075|    0.012094|
|         665|   -5.185853|   -7.149388|    0.824077|    0.012095|
|         666|   -5.190971|   -7.155083|    0.824079|    0.012096|
|         667|   -5.196121|   -7.160918|    0.824082|    0.012097|
|         668|   -5.201287|   -7.166882|    0.824084|    0.012097|
|         669|   -5.206450|   -7.172964|    0.824086|    0.012099|
|         670|   -5.211595|   -7.179156|    0.824088|    0.012100|
|         671|   -5.216704|   -7.185449|    0.824090|    0.012101|
|         672|   -5.221762|   -7.191834|    0.824092|    0.012102|
|         673|   -5.226752|   -7.198303|    0.824094|    0.012103|
|         674|   -5.231657|   -7.204853|    0.824095|    0.012105|
|         675|   -5.236460|   -7.211480|    0.824096|    0.012106|
|         676|   -5.241144|   -7.218181|    0.824097|    0.012108|
|         677|   -5.245692|   -7.224956|    0.824098|    0.012109|
|         678|   -5.250087|   -7.231801|    0.824099|    0.012111|
|         679|   -5.254313|   -7.238713|    0.824100|    0.012113|
|         680|   -5.258355|   -7.245688|    0.824100|    0.012114|
|         681|   -5.262200|   -7.252717|    0.824101|    0.012116|
|         682|   -5.265836|   -7.259792|    0.824101|    0.012118|
|         683|   -5.269254|   -7.266899|    0.824101|    0.012120|
|         684|   -5.272449|   -7.274022|    0.824101|    0.012121|
|         685|   -5.275417|   -7.281140|    0.824101|    0.012123|
|         686|   -5.278160|   -7.288231|    0.824101|    0.012125|
|         687|   -5.280683|   -7.295266|    0.824100|    0.012127|
|         688|   -5.282995|   -7.302216|    0.824100|    0.012129|
|         689|   -5.285111|   -7.309050|    0.824099|    0.012130|
|         690|   -5.287047|   -7.315735|    0.824098|    0.012132|
|         691|   -5.288824|   -7.322241|    0.824098|    0.012134|
|         692|   -5.290467|   -7.328538|    0.824097|    0.012136|
|         693|   -5.292002|   -7.334597|    0.824096|    0.012137|
|         694|   -5.293459|   -7.340397|    0.824095|    0.012139|
|         695|   -5.294866|   -7.345918|    0.824094|    0.012140|
|         696|   -5.296255|   -7.351149|    0.824093|    0.012142|
|         697|   -5.297655|   -7.356084|    0.824092|    0.012144|
|         698|   -5.299097|   -7.360726|    0.824091|    0.012145|
|         699|   -5.300606|   -7.365081|    0.824090|    0.012146|
|         700|   -5.302208|   -7.369165|    0.824088|    0.012148|
|         701|   -5.303925|   -7.372998|    0.824087|    0.012143|
+-----------------------------------------------------------------------+
|Fixed CL Mode                           |Value                         |
+-----------------------------------------------------------------------+
|Current CL                              |0.824087                      |
|Target CL                               |0.824                         |
|Previous AOA                            |2.78305                       |
|Changed AoA by                          |-0.000441481                  |
+-----------------------------------------------------------------------+
+----------------------------------------------------------------+
|  Inner_Iter|    rms[Rho]|     rms[nu]|          CL|          CD|
+----------------------------------------------------------------+
|         702|   -3.548590|   -7.322862|    0.824086|    0.012144|
|         703|   -3.933971|   -7.351685|    0.824085|    0.012145|
|         704|   -4.179638|   -7.362535|    0.824083|    0.012146|
|         705|   -4.258211|   -7.369748|    0.824082|    0.012147|
|         706|   -4.310910|   -7.375713|    0.824080|    0.012148|
|         707|   -4.379577|   -7.380974|    0.824079|    0.012149|
|         708|   -4.464635|   -7.385682|    0.824078|    0.012150|
|         709|   -4.553215|   -7.389918|    0.824076|    0.012151|
|         710|   -4.628888|   -7.393746|    0.824075|    0.012152|
|         711|   -4.683572|   -7.397201|    0.824073|    0.012152|
|         712|   -4.719168|   -7.400341|    0.824071|    0.012153|
|         713|   -4.739690|   -7.403279|    0.824070|    0.012153|
|         714|   -4.749007|   -7.406162|    0.824068|    0.012154|
|         715|   -4.752762|   -7.409105|    0.824067|    0.012154|
|         716|   -4.757256|   -7.412163|    0.824065|    0.012154|
|         717|   -4.766700|   -7.415354|    0.824063|    0.012154|
|         718|   -4.782043|   -7.418681|    0.824061|    0.012154|
|         719|   -4.801516|   -7.422162|    0.824060|    0.012154|
|         720|   -4.822085|   -7.425817|    0.824058|    0.012154|
|         721|   -4.841219|   -7.429659|    0.824056|    0.012154|
|         722|   -4.858113|   -7.433679|    0.824054|    0.012154|
|         723|   -4.873580|   -7.437852|    0.824052|    0.012153|
|         724|   -4.888943|   -7.442140|    0.824051|    0.012153|
|         725|   -4.904995|   -7.446510|    0.824049|    0.012152|
|         726|   -4.921666|   -7.450933|    0.824047|    0.012152|
|         727|   -4.938250|   -7.455389|    0.824045|    0.012151|
|         728|   -4.953826|   -7.459867|    0.824043|    0.012150|
|         729|   -4.967574|   -7.464366|    0.824041|    0.012150|
|         730|   -4.978960|   -7.468888|    0.824039|    0.012149|
|         731|   -4.987834|   -7.473433|    0.824038|    0.012148|
|         732|   -4.994488|   -7.478003|    0.824036|    0.012147|
|         733|   -4.999626|   -7.482602|    0.824034|    0.012146|
|         734|   -5.004214|   -7.487232|    0.824032|    0.012145|
|         735|   -5.009239|   -7.491888|    0.824031|    0.012144|
|         736|   -5.015501|   -7.496570|    0.824029|    0.012143|
|         737|   -5.023469|   -7.501250|    0.824027|    0.012142|
|         738|   -5.033242|   -7.505918|    0.824025|    0.012141|
|         739|   -5.044551|   -7.510581|    0.824024|    0.012140|
|         740|   -5.056804|   -7.515226|    0.824022|    0.012139|
|         741|   -5.069183|   -7.519843|    0.824020|    0.012137|
|         742|   -5.080797|   -7.524421|    0.824018|    0.012136|
|         743|   -5.090897|   -7.528959|    0.824017|    0.012135|
|         744|   -5.099078|   -7.533460|    0.824015|    0.012134|
|         745|   -5.105402|   -7.537931|    0.824013|    0.012133|
|         746|   -5.110344|   -7.542367|    0.824011|    0.012131|
|         747|   -5.114621|   -7.546765|    0.824010|    0.012130|
|         748|   -5.118966|   -7.551122|    0.824008|    0.012129|
|         749|   -5.123944|   -7.555426|    0.824006|    0.012128|
|         750|   -5.129858|   -7.559651|    0.824004|    0.012127|
|         751|   -5.136732|   -7.563770|    0.824002|    0.012125|
|         752|   -5.144351|   -7.567756|    0.824000|    0.012124|
|         753|   -5.152346|   -7.571588|    0.823998|    0.012123|
|         754|   -5.160285|   -7.575247|    0.823996|    0.012122|
|         755|   -5.167777|   -7.578727|    0.823994|    0.012121|
|         756|   -5.174536|   -7.581994|    0.823992|    0.012120|
|         757|   -5.180427|   -7.585030|    0.823989|    0.012119|
|         758|   -5.185460|   -7.587831|    0.823987|    0.012118|
|         759|   -5.189748|   -7.590404|    0.823984|    0.012117|
|         760|   -5.193459|   -7.592772|    0.823982|    0.012116|
|         761|   -5.196758|   -7.594966|    0.823979|    0.012115|
|         762|   -5.199777|   -7.597030|    0.823977|    0.012114|
|         763|   -5.202596|   -7.599026|    0.823974|    0.012114|
|         764|   -5.205248|   -7.601013|    0.823971|    0.012113|
|         765|   -5.207729|   -7.603048|    0.823968|    0.012112|
|         766|   -5.210018|   -7.605197|    0.823966|    0.012112|
|         767|   -5.212089|   -7.607529|    0.823963|    0.012111|
|         768|   -5.213926|   -7.610103|    0.823960|    0.012111|
|         769|   -5.215524|   -7.612979|    0.823957|    0.012110|
|         770|   -5.216891|   -7.616208|    0.823955|    0.012110|
|         771|   -5.218042|   -7.619841|    0.823952|    0.012110|
|         772|   -5.218997|   -7.623908|    0.823949|    0.012109|
|         773|   -5.219775|   -7.628428|    0.823947|    0.012109|
|         774|   -5.220393|   -7.633410|    0.823945|    0.012109|
|         775|   -5.220865|   -7.638849|    0.823943|    0.012109|
|         776|   -5.221203|   -7.644720|    0.823941|    0.012109|
|         777|   -5.221420|   -7.650983|    0.823939|    0.012109|
|         778|   -5.221527|   -7.657580|    0.823938|    0.012110|
|         779|   -5.221536|   -7.664437|    0.823936|    0.012110|
|         780|   -5.221462|   -7.671472|    0.823935|    0.012110|
|         781|   -5.221321|   -7.678606|    0.823934|    0.012111|
|         782|   -5.221132|   -7.685752|    0.823934|    0.012111|
|         783|   -5.220910|   -7.692816|    0.823933|    0.012111|
|         784|   -5.220676|   -7.699705|    0.823933|    0.012112|
|         785|   -5.220448|   -7.706333|    0.823933|    0.012113|
|         786|   -5.220243|   -7.712613|    0.823934|    0.012113|
|         787|   -5.220080|   -7.718490|    0.823934|    0.012114|
|         788|   -5.219976|   -7.723934|    0.823935|    0.012115|
|         789|   -5.219945|   -7.728935|    0.823936|    0.012116|
|         790|   -5.220002|   -7.733502|    0.823937|    0.012117|
|         791|   -5.220161|   -7.737666|    0.823938|    0.012118|
|         792|   -5.220433|   -7.741459|    0.823940|    0.012119|
|         793|   -5.220827|   -7.744943|    0.823942|    0.012120|
|         794|   -5.221351|   -7.748184|    0.823943|    0.012121|
|         795|   -5.222010|   -7.751250|    0.823945|    0.012122|
|         796|   -5.222806|   -7.754201|    0.823947|    0.012123|
|         797|   -5.223740|   -7.757086|    0.823949|    0.012124|
|         798|   -5.224809|   -7.759943|    0.823951|    0.012125|
|         799|   -5.226006|   -7.762781|    0.823953|    0.012126|
|         800|   -5.227324|   -7.765592|    0.823955|    0.012127|
|         801|   -5.228751|   -7.768345|    0.823958|    0.012132|
+-----------------------------------------------------------------------+
|Fixed CL Mode                           |Value                         |
+-----------------------------------------------------------------------+
|Current CL                              |0.823958                      |
|Target CL                               |0.824                         |
|Previous AOA                            |2.78261                       |
|Changed AoA by                          |0.000222579                   |
+-----------------------------------------------------------------------+
+----------------------------------------------------------------+
|  Inner_Iter|    rms[Rho]|     rms[nu]|          CL|          CD|
+----------------------------------------------------------------+
|         802|   -3.845467|   -7.690158|    0.823960|    0.012133|
|         803|   -4.228486|   -7.729557|    0.823962|    0.012134|
|         804|   -4.469736|   -7.743741|    0.823964|    0.012135|
|         805|   -4.547197|   -7.752155|    0.823966|    0.012136|
|         806|   -4.599305|   -7.758128|    0.823968|    0.012137|
|         807|   -4.665772|   -7.762478|    0.823970|    0.012138|
|         808|   -4.745943|   -7.765493|    0.823972|    0.012139|
|         809|   -4.826268|   -7.767342|    0.823974|    0.012141|
|         810|   -4.891214|   -7.768118|    0.823976|    0.012142|
|         811|   -4.935079|   -7.767830|    0.823977|    0.012143|
|         812|   -4.961659|   -7.766536|    0.823979|    0.012144|
|         813|   -4.975894|   -7.764387|    0.823980|    0.012145|
|         814|   -4.981738|   -7.761578|    0.823981|    0.012145|
|         815|   -4.983771|   -7.758283|    0.823983|    0.012146|
|         816|   -4.986653|   -7.754621|    0.823984|    0.012147|
|         817|   -4.993315|   -7.750686|    0.823984|    0.012148|
|         818|   -5.004177|   -7.746585|    0.823985|    0.012149|
|         819|   -5.017639|   -7.742454|    0.823986|    0.012149|
|         820|   -5.031324|   -7.738424|    0.823986|    0.012150|
|         821|   -5.043433|   -7.734643|    0.823986|    0.012151|
|         822|   -5.053495|   -7.731228|    0.823986|    0.012151|
|         823|   -5.062127|   -7.728268|    0.823986|    0.012152|
|         824|   -5.070218|   -7.725831|    0.823986|    0.012152|
|         825|   -5.078285|   -7.723969|    0.823986|    0.012153|
|         826|   -5.086319|   -7.722734|    0.823985|    0.012153|
|         827|   -5.093982|   -7.722166|    0.823984|    0.012153|
|         828|   -5.100868|   -7.722299|    0.823984|    0.012154|
|         829|   -5.106664|   -7.723152|    0.823983|    0.012154|
|         830|   -5.111203|   -7.724735|    0.823982|    0.012154|
|         831|   -5.114479|   -7.727044|    0.823980|    0.012154|
|         832|   -5.116654|   -7.730076|    0.823979|    0.012154|
|         833|   -5.118047|   -7.733804|    0.823978|    0.012154|
|         834|   -5.119070|   -7.738183|    0.823976|    0.012154|
|         835|   -5.120146|   -7.743165|    0.823975|    0.012154|
|         836|   -5.121611|   -7.748671|    0.823974|    0.012154|
|         837|   -5.123659|   -7.754603|    0.823972|    0.012154|
|         838|   -5.126324|   -7.760862|    0.823970|    0.012153|
|         839|   -5.129497|   -7.767325|    0.823969|    0.012153|
|         840|   -5.132960|   -7.773860|    0.823967|    0.012153|
|         841|   -5.136444|   -7.780320|    0.823966|    0.012152|
|         842|   -5.139692|   -7.786559|    0.823964|    0.012152|
|         843|   -5.142527|   -7.792433|    0.823963|    0.012152|
|         844|   -5.144891|   -7.797794|    0.823962|    0.012151|
|         845|   -5.146862|   -7.802516|    0.823961|    0.012151|
|         846|   -5.148624|   -7.806491|    0.823959|    0.012150|
|         847|   -5.150412|   -7.809646|    0.823958|    0.012150|
|         848|   -5.152451|   -7.811940|    0.823958|    0.012149|
|         849|   -5.154913|   -7.813370|    0.823957|    0.012149|
|         850|   -5.157884|   -7.813975|    0.823956|    0.012148|
|         851|   -5.161369|   -7.813835|    0.823956|    0.012148|
|         852|   -5.165307|   -7.813059|    0.823956|    0.012147|
|         853|   -5.169596|   -7.811779|    0.823956|    0.012147|
|         854|   -5.174123|   -7.810145|    0.823956|    0.012146|
|         855|   -5.178793|   -7.808317|    0.823956|    0.012145|
|         856|   -5.183541|   -7.806466|    0.823957|    0.012145|
|         857|   -5.188337|   -7.804755|    0.823958|    0.012144|
|         858|   -5.193185|   -7.803339|    0.823959|    0.012144|
|         859|   -5.198112|   -7.802359|    0.823960|    0.012143|
|         860|   -5.203150|   -7.801941|    0.823961|    0.012143|
|         861|   -5.208329|   -7.802193|    0.823963|    0.012142|
|         862|   -5.213665|   -7.803204|    0.823964|    0.012141|
|         863|   -5.219159|   -7.805044|    0.823966|    0.012141|
|         864|   -5.224794|   -7.807763|    0.823968|    0.012140|
|         865|   -5.230538|   -7.811389|    0.823970|    0.012140|
|         866|   -5.236352|   -7.815928|    0.823973|    0.012139|
|         867|   -5.242190|   -7.821361|    0.823975|    0.012139|
|         868|   -5.248002|   -7.827643|    0.823978|    0.012139|
|         869|   -5.253739|   -7.834699|    0.823980|    0.012138|
|         870|   -5.259352|   -7.842425|    0.823983|    0.012138|
|         871|   -5.264790|   -7.850685|    0.823985|    0.012137|
|         872|   -5.270003|   -7.859305|    0.823988|    0.012137|
|         873|   -5.274942|   -7.868082|    0.823990|    0.012137|
|         874|   -5.279557|   -7.876779|    0.823993|    0.012136|
|         875|   -5.283798|   -7.885137|    0.823996|    0.012136|
|         876|   -5.287621|   -7.892885|    0.823998|    0.012136|
|         877|   -5.290984|   -7.899754|    0.824000|    0.012135|
|         878|   -5.293854|   -7.905497|    0.824003|    0.012135|
|         879|   -5.296205|   -7.909913|    0.824005|    0.012135|
|         880|   -5.298021|   -7.912865|    0.824007|    0.012135|
|         881|   -5.299296|   -7.914294|    0.824009|    0.012134|
|         882|   -5.300035|   -7.914227|    0.824011|    0.012134|
|         883|   -5.300252|   -7.912774|    0.824013|    0.012134|
|         884|   -5.299973|   -7.910112|    0.824014|    0.012134|
|         885|   -5.299231|   -7.906469|    0.824016|    0.012134|
|         886|   -5.298066|   -7.902101|    0.824017|    0.012133|
|         887|   -5.296525|   -7.897272|    0.824018|    0.012133|
|         888|   -5.294660|   -7.892235|    0.824020|    0.012133|
|         889|   -5.292525|   -7.887218|    0.824021|    0.012133|
|         890|   -5.290177|   -7.882420|    0.824021|    0.012133|
|         891|   -5.287670|   -7.878005|    0.824022|    0.012133|
|         892|   -5.285060|   -7.874096|    0.824023|    0.012133|
|         893|   -5.282399|   -7.870785|    0.824023|    0.012133|
|         894|   -5.279738|   -7.868128|    0.824024|    0.012133|
|         895|   -5.277122|   -7.866154|    0.824024|    0.012133|
|         896|   -5.274595|   -7.864862|    0.824024|    0.012133|
|         897|   -5.272195|   -7.864231|    0.824025|    0.012133|
|         898|   -5.269957|   -7.864215|    0.824025|    0.012134|
|         899|   -5.267912|   -7.864754|    0.824025|    0.012134|
|         900|   -5.266086|   -7.865768|    0.824025|    0.012134|
|         901|   -5.264503|   -7.867171|    0.824025|    0.012132|
+-----------------------------------------------------------------------+
|Fixed CL Mode                           |Value                         |
+-----------------------------------------------------------------------+
|Current CL                              |0.824025                      |
|Target CL                               |0.824                         |
|Previous AOA                            |2.78283                       |
[...]
|        5298|   -6.043402|   -7.940672|    0.824238|    0.012142|
|        5299|   -6.050026|   -7.945160|    0.824239|    0.012142|
|        5300|   -6.056306|   -7.949646|    0.824239|    0.012142|
|        5301|   -6.062204|   -7.954149|    0.824239|    0.012142|
|        5302|   -6.067692|   -7.958684|    0.824239|    0.012142|
|        5303|   -6.072750|   -7.963267|    0.824239|    0.012142|
|        5304|   -6.077372|   -7.967908|    0.824239|    0.012142|
|        5305|   -6.081560|   -7.972616|    0.824239|    0.012142|
|        5306|   -6.085326|   -7.977400|    0.824239|    0.012141|
|        5307|   -6.088695|   -7.982266|    0.824239|    0.012141|
|        5308|   -6.091697|   -7.987219|    0.824240|    0.012141|
|        5309|   -6.094369|   -7.992264|    0.824240|    0.012141|
|        5310|   -6.096758|   -7.997406|    0.824240|    0.012141|
|        5311|   -6.098909|   -8.002650|    0.824240|    0.012141|
|        5312|   -6.100875|   -8.008000|    0.824240|    0.012141|
|        5313|   -6.102707|   -8.013462|    0.824240|    0.012141|
|        5314|   -6.104455|   -8.019042|    0.824240|    0.012141|
|        5315|   -6.106168|   -8.024746|    0.824240|    0.012141|
|        5316|   -6.107893|   -8.030583|    0.824241|    0.012142|
|        5317|   -6.109672|   -8.036561|    0.824241|    0.012142|
|        5318|   -6.111542|   -8.042688|    0.824241|    0.012142|
|        5319|   -6.113535|   -8.048972|    0.824241|    0.012142|
|        5320|   -6.115678|   -8.055421|    0.824241|    0.012142|
|        5321|   -6.117992|   -8.062045|    0.824241|    0.012142|
|        5322|   -6.120490|   -8.068849|    0.824241|    0.012142|
|        5323|   -6.123181|   -8.075841|    0.824242|    0.012142|
|        5324|   -6.126066|   -8.083024|    0.824242|    0.012142|
|        5325|   -6.129139|   -8.090401|    0.824242|    0.012142|
|        5326|   -6.132390|   -8.097974|    0.824242|    0.012142|
|        5327|   -6.135803|   -8.105744|    0.824242|    0.012142|
|        5328|   -6.139353|   -8.113708|    0.824242|    0.012142|
|        5329|   -6.143012|   -8.121860|    0.824243|    0.012142|
|        5330|   -6.146748|   -8.130191|    0.824243|    0.012143|
|        5331|   -6.150525|   -8.138692|    0.824243|    0.012143|
|        5332|   -6.154306|   -8.147348|    0.824243|    0.012143|
|        5333|   -6.158050|   -8.156148|    0.824243|    0.012143|
|        5334|   -6.161717|   -8.165077|    0.824243|    0.012143|
|        5335|   -6.165269|   -8.174119|    0.824243|    0.012143|
|        5336|   -6.168669|   -8.183257|    0.824244|    0.012143|
|        5337|   -6.171884|   -8.192474|    0.824244|    0.012143|
|        5338|   -6.174886|   -8.201753|    0.824244|    0.012143|
|        5339|   -6.177654|   -8.211077|    0.824244|    0.012143|
|        5340|   -6.180173|   -8.220429|    0.824244|    0.012143|
|        5341|   -6.182437|   -8.229793|    0.824244|    0.012144|
|        5342|   -6.184447|   -8.239157|    0.824244|    0.012144|
|        5343|   -6.186212|   -8.248506|    0.824244|    0.012144|
|        5344|   -6.187750|   -8.257830|    0.824245|    0.012144|
|        5345|   -6.189086|   -8.267118|    0.824245|    0.012144|
|        5346|   -6.190250|   -8.276362|    0.824245|    0.012144|
|        5347|   -6.191277|   -8.285557|    0.824245|    0.012144|
|        5348|   -6.192209|   -8.294695|    0.824245|    0.012144|
|        5349|   -6.193087|   -8.303774|    0.824245|    0.012144|
|        5350|   -6.193955|   -8.312790|    0.824245|    0.012144|
|        5351|   -6.194857|   -8.321741|    0.824245|    0.012144|
|        5352|   -6.195837|   -8.330625|    0.824245|    0.012144|
|        5353|   -6.196937|   -8.339440|    0.824245|    0.012144|
|        5354|   -6.198194|   -8.348186|    0.824245|    0.012144|
|        5355|   -6.199646|   -8.356860|    0.824245|    0.012144|
|        5356|   -6.201323|   -8.365460|    0.824245|    0.012144|
|        5357|   -6.203255|   -8.373982|    0.824245|    0.012144|
|        5358|   -6.205464|   -8.382424|    0.824245|    0.012144|
|        5359|   -6.207969|   -8.390779|    0.824245|    0.012144|
|        5360|   -6.210784|   -8.399041|    0.824245|    0.012144|
|        5361|   -6.213920|   -8.407203|    0.824245|    0.012144|
|        5362|   -6.217379|   -8.415256|    0.824245|    0.012144|
|        5363|   -6.221162|   -8.423192|    0.824245|    0.012144|
|        5364|   -6.225262|   -8.431001|    0.824245|    0.012144|
|        5365|   -6.229669|   -8.438672|    0.824245|    0.012144|
|        5366|   -6.234368|   -8.446195|    0.824245|    0.012144|
|        5367|   -6.239337|   -8.453560|    0.824245|    0.012144|
|        5368|   -6.244553|   -8.460756|    0.824245|    0.012144|
|        5369|   -6.249984|   -8.467775|    0.824245|    0.012144|
|        5370|   -6.255598|   -8.474609|    0.824245|    0.012144|
|        5371|   -6.261355|   -8.481252|    0.824245|    0.012144|
|        5372|   -6.267213|   -8.487700|    0.824245|    0.012144|
|        5373|   -6.273129|   -8.493951|    0.824245|    0.012144|
|        5374|   -6.279054|   -8.500004|    0.824245|    0.012144|
|        5375|   -6.284940|   -8.505864|    0.824245|    0.012144|
|        5376|   -6.290737|   -8.511536|    0.824245|    0.012144|
|        5377|   -6.296397|   -8.517027|    0.824245|    0.012144|
|        5378|   -6.301871|   -8.522349|    0.824245|    0.012144|
|        5379|   -6.307115|   -8.527514|    0.824245|    0.012144|
|        5380|   -6.312089|   -8.532538|    0.824245|    0.012144|
|        5381|   -6.316755|   -8.537436|    0.824245|    0.012143|
|        5382|   -6.321085|   -8.542226|    0.824245|    0.012143|
|        5383|   -6.325055|   -8.546928|    0.824245|    0.012143|
|        5384|   -6.328648|   -8.551559|    0.824245|    0.012143|
|        5385|   -6.331857|   -8.556138|    0.824245|    0.012143|
|        5386|   -6.334679|   -8.560680|    0.824245|    0.012143|
|        5387|   -6.337120|   -8.565198|    0.824245|    0.012143|
|        5388|   -6.339191|   -8.569703|    0.824245|    0.012143|
|        5389|   -6.340910|   -8.574201|    0.824245|    0.012143|
|        5390|   -6.342296|   -8.578696|    0.824245|    0.012143|
|        5391|   -6.343375|   -8.583185|    0.824245|    0.012143|
|        5392|   -6.344173|   -8.587664|    0.824245|    0.012142|
|        5393|   -6.344717|   -8.592123|    0.824245|    0.012142|
|        5394|   -6.345034|   -8.596546|    0.824245|    0.012142|
|        5395|   -6.345153|   -8.600915|    0.824245|    0.012142|
|        5396|   -6.345097|   -8.605205|    0.824245|    0.012142|
|        5397|   -6.344891|   -8.609391|    0.824245|    0.012142|
|        5398|   -6.344555|   -8.613442|    0.824245|    0.012142|
|        5399|   -6.344110|   -8.617327|    0.824245|    0.012142|
|        5400|   -6.343571|   -8.621014|    0.824246|    0.012142|
|        5401|   -6.342952|   -8.624471|    0.824246|    0.012142|
|        5402|   -6.342265|   -8.627667|    0.824246|    0.012141|
|        5403|   -6.341520|   -8.630575|    0.824246|    0.012141|
|        5404|   -6.340724|   -8.633172|    0.824246|    0.012141|
|        5405|   -6.339884|   -8.635441|    0.824246|    0.012141|
|        5406|   -6.339006|   -8.637370|    0.824246|    0.012141|
|        5407|   -6.338092|   -8.638955|    0.824246|    0.012141|
|        5408|   -6.337148|   -8.640213|    0.824247|    0.012141|
|        5409|   -6.336176|   -8.641150|    0.824247|    0.012141|
|        5410|   -6.335176|   -8.641773|    0.824247|    0.012141|
|        5411|   -6.334154|   -8.642096|    0.824247|    0.012141|
|        5412|   -6.333111|   -8.642132|    0.824247|    0.012141|
|        5413|   -6.332051|   -8.641904|    0.824247|    0.012140|
|        5414|   -6.330978|   -8.641441|    0.824247|    0.012140|
|        5415|   -6.329896|   -8.640773|    0.824248|    0.012140|
|        5416|   -6.328810|   -8.639931|    0.824248|    0.012140|
|        5417|   -6.327726|   -8.638948|    0.824248|    0.012140|
|        5418|   -6.326649|   -8.637854|    0.824248|    0.012140|
|        5419|   -6.325586|   -8.636679|    0.824248|    0.012140|
|        5420|   -6.324545|   -8.635449|    0.824248|    0.012140|
|        5421|   -6.323533|   -8.634187|    0.824248|    0.012140|
|        5422|   -6.322559|   -8.632912|    0.824248|    0.012140|
|        5423|   -6.321633|   -8.631641|    0.824248|    0.012140|
|        5424|   -6.320765|   -8.630385|    0.824248|    0.012140|
|        5425|   -6.319966|   -8.629155|    0.824248|    0.012140|
|        5426|   -6.319249|   -8.627956|    0.824249|    0.012140|
|        5427|   -6.318625|   -8.626792|    0.824249|    0.012140|
|        5428|   -6.318107|   -8.625664|    0.824249|    0.012140|
|        5429|   -6.317710|   -8.624570|    0.824249|    0.012140|
|        5430|   -6.317447|   -8.623512|    0.824249|    0.012140|
|        5431|   -6.317333|   -8.622489|    0.824249|    0.012140|
|        5432|   -6.317382|   -8.621501|    0.824249|    0.012140|
|        5433|   -6.317610|   -8.620553|    0.824249|    0.012140|
|        5434|   -6.318031|   -8.619648|    0.824249|    0.012140|
|        5435|   -6.318659|   -8.618796|    0.824249|    0.012140|
|        5436|   -6.319508|   -8.618004|    0.824249|    0.012140|
|        5437|   -6.320590|   -8.617282|    0.824249|    0.012140|
|        5438|   -6.321918|   -8.616643|    0.824249|    0.012140|
|        5439|   -6.323502|   -8.616096|    0.824249|    0.012140|
|        5440|   -6.325351|   -8.615652|    0.824249|    0.012140|
|        5441|   -6.327472|   -8.615321|    0.824249|    0.012140|
|        5442|   -6.329871|   -8.615114|    0.824249|    0.012140|
|        5443|   -6.332549|   -8.615039|    0.824249|    0.012140|
|        5444|   -6.335508|   -8.615105|    0.824249|    0.012140|
|        5445|   -6.338744|   -8.615319|    0.824248|    0.012140|
|        5446|   -6.342254|   -8.615689|    0.824248|    0.012140|
|        5447|   -6.346027|   -8.616221|    0.824248|    0.012140|
|        5448|   -6.350052|   -8.616921|    0.824248|    0.012140|
|        5449|   -6.354314|   -8.617793|    0.824248|    0.012141|
|        5450|   -6.358794|   -8.618839|    0.824248|    0.012141|
|        5451|   -6.363468|   -8.620063|    0.824248|    0.012141|
|        5452|   -6.368310|   -8.621464|    0.824248|    0.012141|
|        5453|   -6.373289|   -8.623042|    0.824248|    0.012141|
|        5454|   -6.378371|   -8.624797|    0.824248|    0.012141|
|        5455|   -6.383519|   -8.626724|    0.824247|    0.012141|
|        5456|   -6.388691|   -8.628820|    0.824247|    0.012141|
|        5457|   -6.393845|   -8.631081|    0.824247|    0.012141|
|        5458|   -6.398933|   -8.633502|    0.824247|    0.012141|
|        5459|   -6.403910|   -8.636076|    0.824247|    0.012141|
|        5460|   -6.408727|   -8.638797|    0.824247|    0.012141|
|        5461|   -6.413339|   -8.641658|    0.824247|    0.012141|
|        5462|   -6.417698|   -8.644653|    0.824246|    0.012141|
|        5463|   -6.421761|   -8.647774|    0.824246|    0.012142|
|        5464|   -6.425491|   -8.651014|    0.824246|    0.012142|
|        5465|   -6.428852|   -8.654366|    0.824246|    0.012142|
|        5466|   -6.431817|   -8.657822|    0.824246|    0.012142|
|        5467|   -6.434364|   -8.661374|    0.824245|    0.012142|
|        5468|   -6.436480|   -8.665016|    0.824245|    0.012142|
|        5469|   -6.438160|   -8.668739|    0.824245|    0.012142|
|        5470|   -6.439406|   -8.672541|    0.824245|    0.012142|
|        5471|   -6.440229|   -8.676416|    0.824245|    0.012142|
|        5472|   -6.440646|   -8.680354|    0.824244|    0.012142|
|        5473|   -6.440681|   -8.684343|    0.824244|    0.012142|
|        5474|   -6.440365|   -8.688371|    0.824244|    0.012142|
|        5475|   -6.439733|   -8.692426|    0.824244|    0.012142|
|        5476|   -6.438823|   -8.696495|    0.824243|    0.012142|
|        5477|   -6.437676|   -8.700567|    0.824243|    0.012142|
|        5478|   -6.436335|   -8.704631|    0.824243|    0.012142|
|        5479|   -6.434843|   -8.708675|    0.824243|    0.012142|
|        5480|   -6.433242|   -8.712689|    0.824243|    0.012142|
|        5481|   -6.431573|   -8.716660|    0.824242|    0.012142|
|        5482|   -6.429876|   -8.720578|    0.824242|    0.012142|
|        5483|   -6.428189|   -8.724430|    0.824242|    0.012142|
|        5484|   -6.426545|   -8.728207|    0.824242|    0.012142|
|        5485|   -6.424976|   -8.731897|    0.824241|    0.012142|
|        5486|   -6.423512|   -8.735491|    0.824241|    0.012142|
|        5487|   -6.422178|   -8.738981|    0.824241|    0.012142|
|        5488|   -6.420997|   -8.742361|    0.824241|    0.012142|
|        5489|   -6.419989|   -8.745625|    0.824240|    0.012142|
|        5490|   -6.419171|   -8.748769|    0.824240|    0.012142|
|        5491|   -6.418558|   -8.751792|    0.824240|    0.012142|
|        5492|   -6.418161|   -8.754696|    0.824240|    0.012142|
|        5493|   -6.417991|   -8.757481|    0.824240|    0.012142|
|        5494|   -6.418054|   -8.760154|    0.824239|    0.012142|
|        5495|   -6.418355|   -8.762719|    0.824239|    0.012142|
|        5496|   -6.418899|   -8.765186|    0.824239|    0.012142|
|        5497|   -6.419687|   -8.767562|    0.824239|    0.012142|
|        5498|   -6.420719|   -8.769858|    0.824239|    0.012142|
|        5499|   -6.421995|   -8.772084|    0.824239|    0.012128|
+-----------------------------------------------------------------------+
|Fixed CL Mode (Finite Difference)       |Value                         |
+-----------------------------------------------------------------------+
|Delta CL / Delta AoA                    |0.238771                      |
|Delta CD / Delta CL                     |0.0196156                     |
|Delta CMz / Delta CL                    |0.00567133                    |
+-----------------------------------------------------------------------+
Writing Flow Meta-Data file: flow.meta

----------------------------- Solver Exit -------------------------------

Maximum number of iterations reached (ITER = 5500) before convergence.
+-----------------------------------------------------------------------+
|      Convergence Field     |     Value    |   Criterion  |  Converged |
+-----------------------------------------------------------------------+
|                    rms[Rho]|        -6.422|         < -12|          No|
+-----------------------------------------------------------------------+
-------------------------------------------------------------------------

--------------------------- Finalizing Solver ---------------------------
Deleted CNumerics container.
Deleted CIntegration container.
Deleted CSolver container.
Deleted CIteration container.
Deleted CInterface container.
Deleted CGeometry container.
Deleted CFreeFormDefBox class.
Deleted CSurfaceMovement class.
Deleted CVolumetricMovement class.
Deleted CConfig container.
Deleted nInst container.
Deleted COutput class.
-------------------------------------------------------------------------

------------------------- Exit Success (SU2_CFD) ------------------------


-------------------------------------------------------------------------
|    ___ _   _ ___                                                      |
|   / __| | | |_  )   Release 8.0.0 "Harrier"                           |
|   \__ \ |_| |/ /                                                      |
|   |___/\___//___|   Suite (Solution Exporting Code)                   |
|                                                                       |
-------------------------------------------------------------------------
| SU2 Project Website: https://su2code.github.io                        |
|                                                                       |
| The SU2 Project is maintained by the SU2 Foundation                   |
| (http://su2foundation.org)                                            |
-------------------------------------------------------------------------
| Copyright 2012-2023, SU2 Contributors                                 |
|                                                                       |
| SU2 is free software; you can redistribute it and/or                  |
| modify it under the terms of the GNU Lesser General Public            |
| License as published by the Free Software Foundation; either          |
| version 2.1 of the License, or (at your option) any later version.    |
|                                                                       |
| SU2 is distributed in the hope that it will be useful,                |
| but WITHOUT ANY WARRANTY; without even the implied warranty of        |
| MERCHANTABILITY or FITNESS FOR A PARTICULAR PURPOSE. See the GNU      |
| Lesser General Public License for more details.                       |
|                                                                       |
| You should have received a copy of the GNU Lesser General Public      |
| License along with SU2. If not, see <http://www.gnu.org/licenses/>.   |
-------------------------------------------------------------------------

----------------- Physical Case Definition ( Zone 0 ) -------------------
Input mesh file name: mesh_RAE2822_turb_deform.su2

-------------------- Output Information ( Zone 0 ) ----------------------
The tabular file format is CSV (.csv).
Flow variables file name: flow.

------------- Config File Boundary Information ( Zone 0 ) ---------------
+-----------------------------------------------------------------------+
|                        Marker Type|                        Marker Name|
+-----------------------------------------------------------------------+
|                          Far-field|                           FARFIELD|
+-----------------------------------------------------------------------+
|                     Heat flux wall|                            AIRFOIL|
+-----------------------------------------------------------------------+
Two dimensional problem.
13937 grid points before partitioning.
22842 volume elements before partitioning.
2 surface markers.
192 boundary elements in index 0 (Marker = AIRFOIL).
40 boundary elements in index 1 (Marker = FARFIELD).
Executing the partitioning functions.
Building the graph adjacency structure.
Calling ParMETIS... graph partitioning complete (831 edge cuts).
Distributing ParMETIS coloring.
Rebalancing vertices.
Rebalancing volume element connectivity.
Rebalancing markers and surface elements.
14875 vertices including ghost points. 
23674 interior elements including halo cells. 
18780 triangles.
4894 quadrilaterals.
Establishing MPI communication patterns.
Identify vertices.
Storing a mapping from global to local point index.

------------------------- Solution Postprocessing -----------------------
Reading and storing the solution from restart_flow.
Volume output fields: COORDINATES, SOLUTION
  Info: Ignoring the following screen output fields:
  RMS_DENSITY, RMS_NU_TILDE, LIFT, DRAG
Screen output fields: INNER_ITER
  Info: Ignoring the following history output groups:
  RMS_RES, AERO_COEFF
History output group(s): ITER
Warning: No (valid) fields chosen for convergence monitoring. Convergence monitoring inactive.
Warning: No (valid) fields chosen for time convergence monitoring. Time convergence monitoring inactive.
|Paraview                           |flow.vtu                           |
|Paraview surface                   |surface_flow.vtu                   |
|CSV file                           |surface_flow.csv                   |

------------------------- Finalize Solver -------------------------
Deleted CGeometry container.
Deleted CSolver class.
Deleted CConfig container.
Deleted COutput class.

Completed in 0.017874 seconds on 6 cores.

------------------------- Exit Success (SU2_SOL) ------------------------

