
-------------------------------------------------------------------------
|    ___ _   _ ___                                                      |
|   / __| | | |_  )   Release 8.0.0 "Harrier"                           |
|   \__ \ |_| |/ /                                                      |
|   |___/\___//___|   Suite (Computational Fluid Dynamics Code)         |
|                                                                       |
-------------------------------------------------------------------------
| SU2 Project Website: https://su2code.github.io                        |
|                                                                       |
| The SU2 Project is maintained by the SU2 Foundation                   |
| (http://su2foundation.org)                                            |
-------------------------------------------------------------------------
| Copyright 2012-2023, SU2 Contributors                                 |
|                                                                       |
| SU2 is free software; you can redistribute it and/or                  |
| modify it under the terms of the GNU Lesser General Public            |
| License as published by the Free Software Foundation; either          |
| version 2.1 of the License, or (at your option) any later version.    |
|                                                                       |
| SU2 is distributed in the hope that it will be useful,                |
| but WITHOUT ANY WARRANTY; without even the implied warranty of        |
| MERCHANTABILITY or FITNESS FOR A PARTICULAR PURPOSE. See the GNU      |
| Lesser General Public License for more details.                       |
|                                                                       |
| You should have received a copy of the GNU Lesser General Public      |
| License along with SU2. If not, see <http://www.gnu.org/licenses/>.   |
-------------------------------------------------------------------------

Parsing config file for zone 0

----------------- Physical Case Definition ( Zone 0 ) -------------------
Compressible RANS equations.
Turbulence model: Spalart-Allmaras-noft2
Hybrid RANS/LES: No Hybrid RANS/LES
Mach number: 0.734.
Angle of attack (AoA): 2.31 deg, and angle of sideslip (AoS): 0 deg.
Reynolds number: 6.5e+06. Reference length 1.
Fixed CL mode, target value: 0.824.
Reading and writing binary SU2 native restart files.
Read flow solution from: solution_flow.dat.
Dimensional simulation.
The reference area is 1 m^2.
The semi-span will be computed using the max y(3D) value.
The reference length is 1 m.
Reference origin for moment evaluation is (0.25, 0, 0).
Surface(s) where the force coefficients are evaluated: AIRFOIL.

Surface(s) plotted in the output file: AIRFOIL.
Surface(s) affected by the design variables: AIRFOIL.
Input mesh file name: mesh_RAE2822_turb_deform.su2

--------------- Space Numerical Integration ( Zone 0 ) ------------------
Jameson-Schmidt-Turkel scheme (2nd order in space) for the flow inviscid terms.
JST viscous coefficients (2nd & 4th): 0.5, 0.02.
The method includes a grid stretching correction (p = 0.3).
Scalar upwind solver for the turbulence model.
First order integration in space.
Average of gradients with correction (viscous flow terms).
Average of gradients with correction (viscous turbulence terms).
Gradient for viscous and source terms: inverse-distance weighted Least-Squares.

--------------- Time Numerical Integration  ( Zone 0 ) ------------------
Local time stepping (steady state simulation).
Euler implicit method for the flow equations.
FGMRES is used for solving the linear system.
Using a ILU(0) preconditioning.
Convergence criteria of the linear solver: 1e-06.
Max number of linear iterations: 10.
No CFL adaptation.
Courant-Friedrichs-Lewy number:       10
Euler implicit time integration for the turbulence model.

------------------ Convergence Criteria  ( Zone 0 ) ---------------------
Maximum number of solver subiterations: 5500.
Begin convergence monitoring at iteration 10.
Residual minimum value: 1e-12.
Cauchy series min. value: 1e-06.
Number of Cauchy elements: 100.
Begin windowed time average at iteration 0.

-------------------- Output Information ( Zone 0 ) ----------------------
File writing frequency: 
+------------------------------------+
|                     File| Frequency|
+------------------------------------+
|                  RESTART|     10000|
|                 PARAVIEW|     10000|
|         SURFACE_PARAVIEW|     10000|
|              SURFACE_CSV|     10000|
+------------------------------------+
Writing the convergence history file every 1 inner iterations.
Writing the screen convergence history every 1 inner iterations.
The tabular file format is CSV (.csv).
Convergence history file name: history_direct.
Forces breakdown file name: forces_breakdown.dat.
Surface file name: surface_flow.
Volume file name: flow.
Restart file name: restart_flow.dat.

------------- Config File Boundary Information ( Zone 0 ) ---------------
+-----------------------------------------------------------------------+
|                        Marker Type|                        Marker Name|
+-----------------------------------------------------------------------+
|                          Far-field|                           FARFIELD|
+-----------------------------------------------------------------------+
|                     Heat flux wall|                            AIRFOIL|
+-----------------------------------------------------------------------+

-------------------- Output Preprocessing ( Zone 0 ) --------------------

WARNING: SURFACE_PRESSURE_DROP can only be computed for at least 2 surfaces (outlet, inlet, ...)

Screen output fields: INNER_ITER, RMS_DENSITY, RMS_NU_TILDE, LIFT, DRAG
History output group(s): ITER, RMS_RES, AERO_COEFF
Convergence field(s): RMS_DENSITY
Warning: No (valid) fields chosen for time convergence monitoring. Time convergence monitoring inactive.
Volume output fields: COORDINATES, SOLUTION, PRIMITIVE

------------------- Geometry Preprocessing ( Zone 0 ) -------------------
Two dimensional problem.
13937 grid points before partitioning.
22842 volume elements before partitioning.
2 surface markers.
192 boundary elements in index 0 (Marker = AIRFOIL).
40 boundary elements in index 1 (Marker = FARFIELD).
Executing the partitioning functions.
Building the graph adjacency structure.
Calling ParMETIS... graph partitioning complete (831 edge cuts).
Distributing ParMETIS coloring.
Rebalancing vertices.
Rebalancing volume element connectivity.
Rebalancing markers and surface elements.
14875 vertices including ghost points. 
23674 interior elements including halo cells. 
18780 triangles.
4894 quadrilaterals.
Establishing MPI communication patterns.
Setting point connectivity.
Renumbering points (Reverse Cuthill McKee Ordering).
Recomputing point connectivity.
Setting element connectivity.
Checking the numerical grid orientation.
All volume elements are correctly orientend.
All surface elements are correctly orientend.
Identifying edges and vertices.
Setting the control volume structure.
Area of the computational grid: 32209.9.
Searching for the closest normal neighbors to the surfaces.
Storing a mapping from global to local point index.
Compute the surface curvature.
Max K: 180.658. Mean K: 7.92584. Standard deviation K: 24.5698.
Checking for periodicity.
Computing mesh quality statistics for the dual control volumes.
+--------------------------------------------------------------+
|           Mesh Quality Metric|        Minimum|        Maximum|
+--------------------------------------------------------------+
|    Orthogonality Angle (deg.)|        75.0212|        89.9998|
|     CV Face Area Aspect Ratio|        1.00489|        3358.32|
|           CV Sub-Volume Ratio|        1.00049|        1216.47|
+--------------------------------------------------------------+
Finding max control volume width.
Communicating number of neighbors.
Wetted area = 2.02166 m.
Area projection in the x-plane = 0.125477 m, y-plane = 0.995873 m.
Max. coordinate in the x-direction = 1 m, y-direction = 0.0623768 m.
Min. coordinate in the x-direction = 0 m, y-direction = -0.0601048 m.
Computing wall distances.

-------------------- Solver Preprocessing ( Zone 0 ) --------------------
WARNING: AoA in the solution file (2.78894 deg.) +
         AoA offset in mesh file (0 deg.) = 2.78894 deg.
WARNING: SU2 will use the dCD/dCL provided in the direct solution file: 0.018124.
WARNING: SU2 will use the dCMz/dCL provided in the direct solution file: 0.00584739.
Viscous flow: Computing pressure using the ideal gas law
based on the free-stream temperature and a density computed
from the Reynolds number.
Force coefficients computed using free-stream values.

-- Models:
+------------------------------------------------------------------------------+
|          Viscosity Model|        Conductivity Model|              Fluid Model|
+------------------------------------------------------------------------------+
|               SUTHERLAND|          CONSTANT_PRANDTL|             STANDARD_AIR|
+------------------------------------------------------------------------------+
-- Fluid properties:
+------------------------------------------------------------------------------+
|                  Name|    Dim. value|    Ref. value|      Unit|Non-dim. value|
+------------------------------------------------------------------------------+
|        Ref. Viscosity|     1.716e-05|             1|   N.s/m^2|     1.716e-05|
|      Sutherland Temp.|        273.15|             1|         K|        273.15|
|     Sutherland Const.|         110.4|             1|         K|         110.4|
+------------------------------------------------------------------------------+
|        Prandtl (Lam.)|             -|             -|         -|          0.71|
|       Prandtl (Turb.)|             -|             -|         -|           0.9|
+------------------------------------------------------------------------------+
|          Gas Constant|       287.058|             1|  N.m/kg.K|       287.058|
|      Spec. Heat Ratio|             -|             -|         -|           1.4|
+------------------------------------------------------------------------------+
-- Initial and free-stream conditions:
+------------------------------------------------------------------------------+
|                  Name|    Dim. value|    Ref. value|      Unit|Non-dim. value|
+------------------------------------------------------------------------------+
|       Static Pressure|         38515|             1|        Pa|         38515|
|               Density|      0.465631|             1|    kg/m^3|      0.465631|
|           Temperature|        288.15|             1|         K|        288.15|
|          Total Energy|        237984|             1|   m^2/s^2|        237984|
|            Velocity-X|       249.482|             1|       m/s|       249.482|
|            Velocity-Y|       12.1534|             1|       m/s|       12.1534|
|    Velocity Magnitude|       249.778|             1|       m/s|       249.778|
+------------------------------------------------------------------------------+
|             Viscosity|    1.7893e-05|             1|   N.s/m^2|    1.7893e-05|
|          Conductivity|             -|             1|   W/m^2.K|             -|
|     Turb. Kin. Energy|       233.959|             1|   m^2/s^2|       233.959|
|     Spec. Dissipation|        608834|             1|       1/s|        608834|
+------------------------------------------------------------------------------+
|           Mach Number|             -|             -|         -|         0.734|
|       Reynolds Number|             -|             -|         -|       6.5e+06|
+------------------------------------------------------------------------------+
Initialize Jacobian structure (Navier-Stokes). MG level: 0.
Initialize Jacobian structure (SA model).

------------------- Numerics Preprocessing ( Zone 0 ) -------------------

----------------- Integration Preprocessing ( Zone 0 ) ------------------

------------------- Iteration Preprocessing ( Zone 0 ) ------------------
Euler/Navier-Stokes/RANS fluid iteration.

------------------------------ Begin Solver -----------------------------

Simulation Run using the Single-zone Driver
WARNING: SU2 was not compiled for an AVX-capable architecture. Performance could be better,
         see https://su2code.github.io/docs_v7/Build-SU2-Linux-MacOS/#compiler-optimizations
+----------------------------------------------------------------+
|  Inner_Iter|    rms[Rho]|     rms[nu]|          CL|          CD|
+----------------------------------------------------------------+
|           0|   -3.951693|   -5.119861|    0.824687|    0.011629|
|           1|   -4.018483|   -5.225034|    0.825172|    0.011775|
|           2|   -4.090708|   -5.338364|    0.825485|    0.011858|
|           3|   -4.142502|   -5.455989|    0.825661|    0.011896|
|           4|   -4.176589|   -5.579258|    0.825744|    0.011907|
|           5|   -4.200835|   -5.700797|    0.825777|    0.011909|
|           6|   -4.216220|   -5.788194|    0.825793|    0.011915|
|           7|   -4.221448|   -5.810645|    0.825808|    0.011931|
|           8|   -4.217426|   -5.790716|    0.825830|    0.011958|
|           9|   -4.206630|   -5.767232|    0.825858|    0.011993|
|          10|   -4.191575|   -5.755524|    0.825888|    0.012034|
|          11|   -4.174585|   -5.754991|    0.825917|    0.012079|
|          12|   -4.157818|   -5.759356|    0.825942|    0.012127|
|          13|   -4.142929|   -5.761944|    0.825963|    0.012177|
|          14|   -4.130737|   -5.758961|    0.825978|    0.012228|
|          15|   -4.121200|   -5.750471|    0.825988|    0.012281|
|          16|   -4.113689|   -5.738633|    0.825993|    0.012335|
|          17|   -4.107387|   -5.725439|    0.825994|    0.012391|
|          18|   -4.101679|   -5.711870|    0.825990|    0.012447|
|          19|   -4.096351|   -5.697959|    0.825983|    0.012503|
|          20|   -4.091571|   -5.683698|    0.825972|    0.012558|
|          21|   -4.087678|   -5.669293|    0.825959|    0.012611|
|          22|   -4.084937|   -5.655257|    0.825944|    0.012662|
|          23|   -4.083369|   -5.642290|    0.825927|    0.012709|
|          24|   -4.082726|   -5.631133|    0.825909|    0.012751|
|          25|   -4.082571|   -5.622410|    0.825890|    0.012788|
|          26|   -4.082419|   -5.616542|    0.825871|    0.012819|
|          27|   -4.081882|   -5.613742|    0.825851|    0.012845|
|          28|   -4.080747|   -5.613997|    0.825832|    0.012865|
|          29|   -4.078987|   -5.617106|    0.825814|    0.012879|
|          30|   -4.076722|   -5.622706|    0.825796|    0.012887|
|          31|   -4.074140|   -5.630306|    0.825778|    0.012891|
|          32|   -4.071446|   -5.639301|    0.825761|    0.012890|
|          33|   -4.068813|   -5.649015|    0.825744|    0.012886|
|          34|   -4.066365|   -5.658740|    0.825726|    0.012878|
|          35|   -4.064172|   -5.667803|    0.825706|    0.012868|
|          36|   -4.062261|   -5.675614|    0.825684|    0.012856|
|          37|   -4.060622|   -5.681738|    0.825659|    0.012843|
|          38|   -4.059209|   -5.685956|    0.825630|    0.012828|
|          39|   -4.057960|   -5.688270|    0.825597|    0.012813|
|          40|   -4.056799|   -5.688904|    0.825560|    0.012796|
|          41|   -4.055649|   -5.688257|    0.825518|    0.012780|
|          42|   -4.054449|   -5.686818|    0.825472|    0.012762|
|          43|   -4.053153|   -5.685087|    0.825423|    0.012745|
|          44|   -4.051742|   -5.683540|    0.825370|    0.012726|
|          45|   -4.050211|   -5.682557|    0.825316|    0.012707|
|          46|   -4.048571|   -5.682421|    0.825262|    0.012688|
|          47|   -4.046829|   -5.683305|    0.825208|    0.012668|
|          48|   -4.044989|   -5.685277|    0.825158|    0.012648|
|          49|   -4.043047|   -5.688315|    0.825112|    0.012627|
|          50|   -4.040988|   -5.692304|    0.825073|    0.012606|
|          51|   -4.038789|   -5.697074|    0.825042|    0.012584|
|          52|   -4.036424|   -5.702382|    0.825020|    0.012562|
|          53|   -4.033875|   -5.707946|    0.825010|    0.012541|
|          54|   -4.031128|   -5.713459|    0.825011|    0.012519|
|          55|   -4.028186|   -5.718607|    0.825026|    0.012498|
|          56|   -4.025063|   -5.723113|    0.825054|    0.012477|
|          57|   -4.021782|   -5.726758|    0.825095|    0.012458|
|          58|   -4.018375|   -5.729397|    0.825150|    0.012439|
|          59|   -4.014879|   -5.730995|    0.825216|    0.012420|
|          60|   -4.011332|   -5.731587|    0.825293|    0.012403|
|          61|   -4.007774|   -5.731279|    0.825380|    0.012387|
|          62|   -4.004240|   -5.730224|    0.825476|    0.012373|
|          63|   -4.000764|   -5.728589|    0.825577|    0.012359|
|          64|   -3.997374|   -5.726530|    0.825683|    0.012346|
|          65|   -3.994090|   -5.724170|    0.825792|    0.012335|
|          66|   -3.990926|   -5.721619|    0.825901|    0.012324|
|          67|   -3.987891|   -5.718967|    0.826010|    0.012314|
|          68|   -3.984988|   -5.716283|    0.826116|    0.012305|
|          69|   -3.982215|   -5.713639|    0.826219|    0.012297|
|          70|   -3.979569|   -5.711142|    0.826317|    0.012289|
|          71|   -3.977044|   -5.708904|    0.826411|    0.012281|
|          72|   -3.974638|   -5.707057|    0.826499|    0.012274|
|          73|   -3.972347|   -5.705738|    0.826581|    0.012268|
|          74|   -3.970171|   -5.705064|    0.826657|    0.012262|
|          75|   -3.968111|   -5.705111|    0.826728|    0.012256|
|          76|   -3.966167|   -5.705912|    0.826793|    0.012251|
|          77|   -3.964341|   -5.707474|    0.826854|    0.012246|
|          78|   -3.962627|   -5.709752|    0.826911|    0.012241|
|          79|   -3.961019|   -5.712668|    0.826964|    0.012237|
|          80|   -3.959504|   -5.716120|    0.827013|    0.012234|
|          81|   -3.958067|   -5.719997|    0.827060|    0.012231|
|          82|   -3.956688|   -5.724155|    0.827104|    0.012228|
|          83|   -3.955352|   -5.728469|    0.827146|    0.012226|
|          84|   -3.954041|   -5.732839|    0.827187|    0.012224|
|          85|   -3.952748|   -5.737187|    0.827225|    0.012223|
|          86|   -3.951470|   -5.741463|    0.827263|    0.012223|
|          87|   -3.950212|   -5.745616|    0.827299|    0.012223|
|          88|   -3.948989|   -5.749626|    0.827334|    0.012224|
|          89|   -3.947819|   -5.753480|    0.827368|    0.012225|
|          90|   -3.946727|   -5.757176|    0.827402|    0.012227|
|          91|   -3.945740|   -5.760708|    0.827434|    0.012230|
|          92|   -3.944887|   -5.764071|    0.827467|    0.012233|
|          93|   -3.944195|   -5.767255|    0.827498|    0.012236|
|          94|   -3.943685|   -5.770249|    0.827530|    0.012240|
|          95|   -3.943379|   -5.773052|    0.827561|    0.012244|
|          96|   -3.943288|   -5.775658|    0.827593|    0.012249|
|          97|   -3.943421|   -5.778057|    0.827624|    0.012255|
|          98|   -3.943777|   -5.780248|    0.827656|    0.012261|
|          99|   -3.944349|   -5.782230|    0.827689|    0.012267|
|         100|   -3.945124|   -5.784005|    0.827722|    0.012274|
|         101|   -3.946079|   -5.785580|    0.827759|    0.012013|
+-----------------------------------------------------------------------+
|Fixed CL Mode                           |Value                         |
+-----------------------------------------------------------------------+
|Current CL                              |0.827759                      |
|Target CL                               |0.824                         |
|Previous AOA                            |2.78894                       |
|Changed AoA by                          |-0.0186091                    |
+-----------------------------------------------------------------------+
+----------------------------------------------------------------+
|  Inner_Iter|    rms[Rho]|     rms[nu]|          CL|          CD|
+----------------------------------------------------------------+
|         102|   -1.923570|   -5.723920|    0.827794|    0.012021|
|         103|   -2.307269|   -5.754661|    0.827829|    0.012030|
|         104|   -2.549664|   -5.765009|    0.827864|    0.012039|
|         105|   -2.628338|   -5.771047|    0.827900|    0.012048|
|         106|   -2.682646|   -5.775475|    0.827935|    0.012058|
|         107|   -2.753208|   -5.778974|    0.827971|    0.012068|
|         108|   -2.840671|   -5.781800|    0.828007|    0.012078|
|         109|   -2.932604|   -5.784093|    0.828042|    0.012089|
|         110|   -3.012476|   -5.785946|    0.828077|    0.012100|
|         111|   -3.071307|   -5.787414|    0.828110|    0.012111|
|         112|   -3.110049|   -5.788554|    0.828142|    0.012122|
|         113|   -3.132204|   -5.789480|    0.828173|    0.012133|
|         114|   -3.141668|   -5.790318|    0.828202|    0.012143|
|         115|   -3.144661|   -5.791168|    0.828229|    0.012154|
|         116|   -3.148205|   -5.792076|    0.828254|    0.012164|
|         117|   -3.156958|   -5.793061|    0.828278|    0.012175|
|         118|   -3.171991|   -5.794140|    0.828298|    0.012184|
|         119|   -3.191433|   -5.795348|    0.828317|    0.012194|
|         120|   -3.212025|   -5.796729|    0.828334|    0.012203|
|         121|   -3.231007|   -5.798309|    0.828348|    0.012211|
|         122|   -3.247441|   -5.800110|    0.828361|    0.012219|
|         123|   -3.262139|   -5.802135|    0.828372|    0.012226|
|         124|   -3.276485|   -5.804368|    0.828381|    0.012233|
|         125|   -3.291346|   -5.806804|    0.828388|    0.012239|
|         126|   -3.306725|   -5.809429|    0.828394|    0.012245|
|         127|   -3.322013|   -5.812247|    0.828398|    0.012250|
|         128|   -3.336418|   -5.815258|    0.828402|    0.012255|
|         129|   -3.349258|   -5.818453|    0.828404|    0.012259|
|         130|   -3.360104|   -5.821830|    0.828405|    0.012263|
|         131|   -3.368842|   -5.825386|    0.828406|    0.012266|
|         132|   -3.375720|   -5.829114|    0.828405|    0.012268|
|         133|   -3.381344|   -5.832993|    0.828403|    0.012270|
|         134|   -3.386565|   -5.837034|    0.828401|    0.012272|
|         135|   -3.392274|   -5.841256|    0.828397|    0.012273|
|         136|   -3.399209|   -5.845647|    0.828392|    0.012274|
|         137|   -3.407818|   -5.850204|    0.828385|    0.012274|
|         138|   -3.418202|   -5.854949|    0.828377|    0.012274|
|         139|   -3.430118|   -5.859893|    0.828366|    0.012274|
|         140|   -3.443010|   -5.865001|    0.828354|    0.012273|
|         141|   -3.456091|   -5.870253|    0.828339|    0.012272|
|         142|   -3.468496|   -5.875681|    0.828321|    0.012270|
|         143|   -3.479484|   -5.881287|    0.828299|    0.012268|
|         144|   -3.488656|   -5.887054|    0.828274|    0.012266|
|         145|   -3.496071|   -5.892993|    0.828245|    0.012263|
|         146|   -3.502215|   -5.899120|    0.828211|    0.012260|
|         147|   -3.507824|   -5.905436|    0.828172|    0.012256|
|         148|   -3.513667|   -5.911971|    0.828128|    0.012251|
|         149|   -3.520348|   -5.918724|    0.828077|    0.012246|
|         150|   -3.528208|   -5.925700|    0.828020|    0.012241|
|         151|   -3.537298|   -5.932901|    0.827956|    0.012235|
|         152|   -3.547414|   -5.940326|    0.827885|    0.012228|
|         153|   -3.558176|   -5.947943|    0.827806|    0.012220|
|         154|   -3.569123|   -5.955729|    0.827720|    0.012212|
|         155|   -3.579814|   -5.963703|    0.827626|    0.012203|
|         156|   -3.589915|   -5.971828|    0.827524|    0.012194|
|         157|   -3.599245|   -5.980132|    0.827414|    0.012183|
|         158|   -3.607787|   -5.988614|    0.827297|    0.012172|
|         159|   -3.615655|   -5.997284|    0.827173|    0.012161|
|         160|   -3.623029|   -6.006146|    0.827042|    0.012149|
|         161|   -3.630104|   -6.015146|    0.826904|    0.012136|
|         162|   -3.637040|   -6.024291|    0.826761|    0.012122|
|         163|   -3.643941|   -6.033550|    0.826613|    0.012108|
|         164|   -3.650852|   -6.042908|    0.826460|    0.012094|
|         165|   -3.657769|   -6.052281|    0.826304|    0.012079|
|         166|   -3.664663|   -6.061728|    0.826146|    0.012064|
|         167|   -3.671497|   -6.071205|    0.825986|    0.012049|
|         168|   -3.678234|   -6.080666|    0.825825|    0.012033|
|         169|   -3.684851|   -6.090070|    0.825666|    0.012018|
|         170|   -3.691337|   -6.099368|    0.825508|    0.012002|
|         171|   -3.697687|   -6.108507|    0.825353|    0.011987|
|         172|   -3.703894|   -6.117390|    0.825203|    0.011971|
|         173|   -3.709949|   -6.125903|    0.825057|    0.011956|
|         174|   -3.715832|   -6.133948|    0.824918|    0.011941|
|         175|   -3.721520|   -6.141374|    0.824786|    0.011927|
|         176|   -3.726978|   -6.148036|    0.824662|    0.011913|
|         177|   -3.732175|   -6.153811|    0.824548|    0.011899|
|         178|   -3.737078|   -6.158610|    0.824442|    0.011886|
|         179|   -3.741661|   -6.162339|    0.824348|    0.011873|
|         180|   -3.745910|   -6.164920|    0.824264|    0.011861|
|         181|   -3.749819|   -6.166327|    0.824191|    0.011850|
|         182|   -3.753396|   -6.166614|    0.824129|    0.011839|
|         183|   -3.756661|   -6.165869|    0.824080|    0.011829|
|         184|   -3.759644|   -6.164232|    0.824042|    0.011819|
|         185|   -3.762387|   -6.161882|    0.824015|    0.011810|
|         186|   -3.764942|   -6.159018|    0.824000|    0.011802|
|         187|   -3.767367|   -6.155843|    0.823996|    0.011794|
|         188|   -3.769724|   -6.152549|    0.824003|    0.011787|
|         189|   -3.772081|   -6.149377|    0.824020|    0.011780|
|         190|   -3.774506|   -6.146537|    0.824047|    0.011774|
|         191|   -3.777068|   -6.144221|    0.824083|    0.011768|
|         192|   -3.779829|   -6.142596|    0.824127|    0.011763|
|         193|   -3.782850|   -6.141803|    0.824180|    0.011758|
|         194|   -3.786183|   -6.141969|    0.824239|    0.011754|
|         195|   -3.789870|   -6.143181|    0.824306|    0.011750|
|         196|   -3.793945|   -6.145492|    0.824378|    0.011746|
|         197|   -3.798430|   -6.148965|    0.824455|    0.011743|
|         198|   -3.803337|   -6.153644|    0.824537|    0.011740|
|         199|   -3.808663|   -6.159544|    0.824623|    0.011737|
|         200|   -3.814392|   -6.166663|    0.824712|    0.011735|
|         201|   -3.820496|   -6.174978|    0.824804|    0.011682|
+-----------------------------------------------------------------------+
|Fixed CL Mode                           |Value                         |
+-----------------------------------------------------------------------+
|Current CL                              |0.824804                      |
|Target CL                               |0.824                         |
|Previous AOA                            |2.77033                       |
|Changed AoA by                          |-0.00355865                   |
+-----------------------------------------------------------------------+
+----------------------------------------------------------------+
|  Inner_Iter|    rms[Rho]|     rms[nu]|          CL|          CD|
+----------------------------------------------------------------+
|         202|   -2.641159|   -6.166784|    0.824897|    0.011680|
|         203|   -3.018432|   -6.184851|    0.824992|    0.011679|
|         204|   -3.241519|   -6.198498|    0.825087|    0.011678|
|         205|   -3.307515|   -6.212027|    0.825182|    0.011677|
|         206|   -3.354269|   -6.225961|    0.825277|    0.011677|
|         207|   -3.415722|   -6.240262|    0.825371|    0.011677|
|         208|   -3.490050|   -6.254758|    0.825463|    0.011678|
|         209|   -3.565553|   -6.269218|    0.825554|    0.011678|
|         210|   -3.630018|   -6.283347|    0.825642|    0.011679|
|         211|   -3.678778|   -6.296807|    0.825727|    0.011681|
|         212|   -3.713601|   -6.309247|    0.825810|    0.011683|
|         213|   -3.736862|   -6.320349|    0.825888|    0.011685|
|         214|   -3.750569|   -6.329896|    0.825963|    0.011687|
|         215|   -3.758162|   -6.337712|    0.826033|    0.011690|
|         216|   -3.764099|   -6.343705|    0.826098|    0.011693|
|         217|   -3.771790|   -6.347871|    0.826159|    0.011696|
|         218|   -3.782424|   -6.350306|    0.826214|    0.011700|
|         219|   -3.795262|   -6.351199|    0.826264|    0.011704|
|         220|   -3.808757|   -6.350802|    0.826308|    0.011708|
|         221|   -3.821742|   -6.349391|    0.826347|    0.011712|
|         222|   -3.834009|   -6.347250|    0.826379|    0.011717|
|         223|   -3.846072|   -6.344650|    0.826406|    0.011721|
|         224|   -3.858510|   -6.341823|    0.826426|    0.011726|
|         225|   -3.871469|   -6.338969|    0.826441|    0.011732|
|         226|   -3.884591|   -6.336256|    0.826449|    0.011737|
|         227|   -3.897259|   -6.333820|    0.826452|    0.011742|
|         228|   -3.908906|   -6.331776|    0.826448|    0.011748|
|         229|   -3.919219|   -6.330213|    0.826439|    0.011753|
|         230|   -3.928190|   -6.329096|    0.826425|    0.011759|
|         231|   -3.936079|   -6.328510|    0.826405|    0.011764|
|         232|   -3.943343|   -6.328518|    0.826380|    0.011770|
|         233|   -3.950553|   -6.329097|    0.826350|    0.011776|
|         234|   -3.958294|   -6.330189|    0.826315|    0.011782|
|         235|   -3.967057|   -6.331772|    0.826276|    0.011787|
|         236|   -3.977159|   -6.333806|    0.826234|    0.011793|
|         237|   -3.988688|   -6.336222|    0.826187|    0.011799|
|         238|   -4.001492|   -6.338931|    0.826138|    0.011804|
|         239|   -4.015193|   -6.341843|    0.826086|    0.011810|
|         240|   -4.029228|   -6.344858|    0.826031|    0.011815|
|         241|   -4.042923|   -6.347939|    0.825974|    0.011821|
|         242|   -4.055595|   -6.351037|    0.825915|    0.011826|
|         243|   -4.066690|   -6.354117|    0.825854|    0.011832|
|         244|   -4.075905|   -6.357140|    0.825793|    0.011837|
|         245|   -4.083252|   -6.360079|    0.825731|    0.011842|
|         246|   -4.089017|   -6.362921|    0.825668|    0.011848|
|         247|   -4.093654|   -6.365659|    0.825605|    0.011853|
|         248|   -4.097637|   -6.368298|    0.825542|    0.011858|
|         249|   -4.101349|   -6.370856|    0.825479|    0.011863|
|         250|   -4.105015|   -6.373346|    0.825416|    0.011868|
|         251|   -4.108695|   -6.375795|    0.825354|    0.011873|
|         252|   -4.112323|   -6.378225|    0.825293|    0.011878|
|         253|   -4.115768|   -6.380660|    0.825232|    0.011883|
|         254|   -4.118893|   -6.383127|    0.825171|    0.011887|
|         255|   -4.121615|   -6.385635|    0.825112|    0.011892|
|         256|   -4.123927|   -6.388194|    0.825053|    0.011896|
|         257|   -4.125907|   -6.390790|    0.824994|    0.011901|
|         258|   -4.127695|   -6.393402|    0.824937|    0.011905|
|         259|   -4.129463|   -6.396002|    0.824879|    0.011909|
|         260|   -4.131389|   -6.398559|    0.824823|    0.011913|
|         261|   -4.133628|   -6.401040|    0.824766|    0.011916|
|         262|   -4.136302|   -6.403382|    0.824710|    0.011920|
|         263|   -4.139492|   -6.405566|    0.824654|    0.011923|
|         264|   -4.143250|   -6.407560|    0.824599|    0.011926|
|         265|   -4.147597|   -6.409344|    0.824543|    0.011929|
|         266|   -4.152544|   -6.410912|    0.824487|    0.011931|
|         267|   -4.158088|   -6.412269|    0.824431|    0.011934|
|         268|   -4.164228|   -6.413405|    0.824376|    0.011936|
|         269|   -4.170956|   -6.414408|    0.824320|    0.011937|
|         270|   -4.178268|   -6.415325|    0.824264|    0.011938|
|         271|   -4.186150|   -6.416209|    0.824208|    0.011939|
|         272|   -4.194585|   -6.417126|    0.824151|    0.011940|
|         273|   -4.203546|   -6.418200|    0.824095|    0.011940|
|         274|   -4.212991|   -6.419521|    0.824039|    0.011940|
|         275|   -4.222868|   -6.421174|    0.823984|    0.011939|
|         276|   -4.233110|   -6.423239|    0.823928|    0.011938|
|         277|   -4.243638|   -6.425774|    0.823874|    0.011937|
|         278|   -4.254360|   -6.428823|    0.823820|    0.011935|
|         279|   -4.265171|   -6.432409|    0.823766|    0.011933|
|         280|   -4.275961|   -6.436528|    0.823714|    0.011931|
|         281|   -4.286611|   -6.441159|    0.823663|    0.011928|
|         282|   -4.296999|   -6.446247|    0.823613|    0.011924|
|         283|   -4.307001|   -6.451706|    0.823564|    0.011921|
|         284|   -4.316499|   -6.457428|    0.823517|    0.011917|
|         285|   -4.325383|   -6.463277|    0.823472|    0.011912|
|         286|   -4.333555|   -6.469100|    0.823429|    0.011908|
|         287|   -4.340933|   -6.474727|    0.823388|    0.011903|
|         288|   -4.347458|   -6.479980|    0.823349|    0.011897|
|         289|   -4.353094|   -6.484690|    0.823313|    0.011892|
|         290|   -4.357831|   -6.488709|    0.823279|    0.011886|
|         291|   -4.361684|   -6.491919|    0.823247|    0.011880|
|         292|   -4.364690|   -6.494252|    0.823219|    0.011874|
|         293|   -4.366912|   -6.495692|    0.823192|    0.011867|
|         294|   -4.368425|   -6.496279|    0.823169|    0.011861|
|         295|   -4.369320|   -6.496105|    0.823148|    0.011854|
|         296|   -4.369697|   -6.495305|    0.823129|    0.011848|
|         297|   -4.369658|   -6.494053|    0.823114|    0.011841|
|         298|   -4.369309|   -6.492541|    0.823100|    0.011835|
|         299|   -4.368749|   -6.490966|    0.823090|    0.011828|
|         300|   -4.368077|   -6.489525|    0.823082|    0.011822|
|         301|   -4.367379|   -6.488397|    0.823075|    0.011881|
+-----------------------------------------------------------------------+
|Fixed CL Mode                           |Value                         |
+-----------------------------------------------------------------------+
|Current CL                              |0.823075                      |
|Target CL                               |0.824                         |
|Previous AOA                            |2.76677                       |
|Changed AoA by                          |0.00459239                    |
+-----------------------------------------------------------------------+
+----------------------------------------------------------------+
|  Inner_Iter|    rms[Rho]|     rms[nu]|          CL|          CD|
+----------------------------------------------------------------+
|         302|   -2.531306|   -6.401145|    0.823071|    0.011875|
|         303|   -2.916848|   -6.442661|    0.823069|    0.011869|
|         304|   -3.165637|   -6.456089|    0.823069|    0.011864|
|         305|   -3.248177|   -6.464197|    0.823071|    0.011858|
|         306|   -3.303519|   -6.470954|    0.823075|    0.011853|
|         307|   -3.374355|   -6.477395|    0.823080|    0.011848|
|         308|   -3.461370|   -6.483693|    0.823086|    0.011844|
|         309|   -3.550870|   -6.489895|    0.823093|    0.011840|
|         310|   -3.624958|   -6.496075|    0.823101|    0.011836|
|         311|   -3.675312|   -6.502127|    0.823110|    0.011832|
|         312|   -3.705321|   -6.507958|    0.823119|    0.011829|
|         313|   -3.720717|   -6.513567|    0.823128|    0.011827|
|         314|   -3.726421|   -6.518975|    0.823138|    0.011824|
|         315|   -3.728250|   -6.524148|    0.823147|    0.011822|
|         316|   -3.732067|   -6.528955|    0.823156|    0.011821|
|         317|   -3.741535|   -6.533223|    0.823165|    0.011820|
|         318|   -3.757214|   -6.536806|    0.823173|    0.011819|
|         319|   -3.777098|   -6.539609|    0.823181|    0.011818|
|         320|   -3.797988|   -6.541591|    0.823188|    0.011818|
|         321|   -3.817215|   -6.542757|    0.823194|    0.011818|
|         322|   -3.833888|   -6.543143|    0.823199|    0.011819|
|         323|   -3.848820|   -6.542802|    0.823203|    0.011820|
|         324|   -3.863431|   -6.541831|    0.823207|    0.011821|
|         325|   -3.878687|   -6.540350|    0.823209|    0.011822|
|         326|   -3.894736|   -6.538520|    0.823211|    0.011824|
|         327|   -3.911098|   -6.536527|    0.823211|    0.011826|
|         328|   -3.927022|   -6.534563|    0.823211|    0.011829|
|         329|   -3.941760|   -6.532780|    0.823210|    0.011831|
|         330|   -3.954709|   -6.531348|    0.823208|    0.011834|
|         331|   -3.965535|   -6.530432|    0.823206|    0.011837|
|         332|   -3.974286|   -6.530138|    0.823203|    0.011840|
|         333|   -3.981438|   -6.530553|    0.823199|    0.011843|
|         334|   -3.987811|   -6.531734|    0.823196|    0.011847|
|         335|   -3.994355|   -6.533697|    0.823192|    0.011850|
|         336|   -4.001918|   -6.536446|    0.823189|    0.011854|
|         337|   -4.011086|   -6.539962|    0.823185|    0.011858|
|         338|   -4.022099|   -6.544186|    0.823182|    0.011862|
|         339|   -4.034839|   -6.549078|    0.823179|    0.011866|
|         340|   -4.048851|   -6.554593|    0.823177|    0.011870|
|         341|   -4.063418|   -6.560655|    0.823175|    0.011875|
|         342|   -4.077696|   -6.567158|    0.823175|    0.011879|
|         343|   -4.090914|   -6.573994|    0.823175|    0.011884|
|         344|   -4.102593|   -6.581053|    0.823176|    0.011888|
|         345|   -4.112699|   -6.588262|    0.823178|    0.011893|
|         346|   -4.121641|   -6.595514|    0.823181|    0.011898|
|         347|   -4.130128|   -6.602704|    0.823186|    0.011903|
|         348|   -4.138944|   -6.609734|    0.823192|    0.011908|
|         349|   -4.148754|   -6.616522|    0.823199|    0.011913|
|         350|   -4.159968|   -6.623020|    0.823208|    0.011918|
|         351|   -4.172698|   -6.629174|    0.823218|    0.011923|
|         352|   -4.186778|   -6.634954|    0.823230|    0.011928|
|         353|   -4.201821|   -6.640360|    0.823244|    0.011934|
|         354|   -4.217312|   -6.645405|    0.823259|    0.011939|
|         355|   -4.232718|   -6.650131|    0.823276|    0.011944|
|         356|   -4.247587|   -6.654589|    0.823294|    0.011950|
|         357|   -4.261623|   -6.658846|    0.823314|    0.011955|
|         358|   -4.274722|   -6.662974|    0.823335|    0.011960|
|         359|   -4.286945|   -6.667052|    0.823357|    0.011966|
|         360|   -4.298461|   -6.671139|    0.823380|    0.011971|
|         361|   -4.309473|   -6.675295|    0.823405|    0.011976|
|         362|   -4.320156|   -6.679560|    0.823430|    0.011982|
|         363|   -4.330617|   -6.683955|    0.823456|    0.011987|
|         364|   -4.340885|   -6.688472|    0.823482|    0.011992|
|         365|   -4.350923|   -6.693094|    0.823508|    0.011997|
|         366|   -4.360650|   -6.697770|    0.823535|    0.012002|
|         367|   -4.369971|   -6.702432|    0.823561|    0.012007|
|         368|   -4.378800|   -6.706992|    0.823586|    0.012012|
|         369|   -4.387076|   -6.711346|    0.823611|    0.012016|
|         370|   -4.394762|   -6.715388|    0.823635|    0.012020|
|         371|   -4.401850|   -6.719006|    0.823658|    0.012025|
|         372|   -4.408347|   -6.722092|    0.823679|    0.012028|
|         373|   -4.414272|   -6.724548|    0.823698|    0.012032|
|         374|   -4.419647|   -6.726298|    0.823716|    0.012035|
|         375|   -4.424501|   -6.727288|    0.823731|    0.012039|
|         376|   -4.428864|   -6.727502|    0.823744|    0.012041|
|         377|   -4.432775|   -6.726957|    0.823754|    0.012044|
|         378|   -4.436280|   -6.725702|    0.823762|    0.012046|
|         379|   -4.439437|   -6.723805|    0.823767|    0.012048|
|         380|   -4.442310|   -6.721368|    0.823770|    0.012050|
|         381|   -4.444971|   -6.718508|    0.823770|    0.012051|
|         382|   -4.447497|   -6.715358|    0.823767|    0.012052|
|         383|   -4.449964|   -6.712058|    0.823761|    0.012053|
|         384|   -4.452444|   -6.708747|    0.823752|    0.012053|
|         385|   -4.455009|   -6.705562|    0.823741|    0.012054|
|         386|   -4.457718|   -6.702629|    0.823727|    0.012053|
|         387|   -4.460629|   -6.700069|    0.823710|    0.012053|
|         388|   -4.463787|   -6.697980|    0.823692|    0.012052|
|         389|   -4.467231|   -6.696449|    0.823671|    0.012051|
|         390|   -4.470993|   -6.695549|    0.823648|    0.012050|
|         391|   -4.475093|   -6.695334|    0.823623|    0.012049|
|         392|   -4.479546|   -6.695839|    0.823597|    0.012047|
|         393|   -4.484357|   -6.697084|    0.823569|    0.012046|
|         394|   -4.489525|   -6.699076|    0.823540|    0.012044|
|         395|   -4.495039|   -6.701800|    0.823510|    0.012041|
|         396|   -4.500880|   -6.705227|    0.823479|    0.012039|
|         397|   -4.507023|   -6.709318|    0.823447|    0.012037|
|         398|   -4.513435|   -6.714014|    0.823415|    0.012034|
|         399|   -4.520073|   -6.719262|    0.823382|    0.012031|
|         400|   -4.526893|   -6.725000|    0.823349|    0.012029|
|         401|   -4.533839|   -6.731147|    0.823315|    0.012072|
+-----------------------------------------------------------------------+
|Fixed CL Mode                           |Value                         |
+-----------------------------------------------------------------------+
|Current CL                              |0.823315                      |
|Target CL                               |0.824                         |
|Previous AOA                            |2.77136                       |
|Changed AoA by                          |0.00325389                    |
+-----------------------------------------------------------------------+
+----------------------------------------------------------------+
|  Inner_Iter|    rms[Rho]|     rms[nu]|          CL|          CD|
+----------------------------------------------------------------+
|         402|   -2.680756|   -6.608392|    0.823282|    0.012069|
|         403|   -3.063521|   -6.669759|    0.823250|    0.012066|
|         404|   -3.304227|   -6.694727|    0.823217|    0.012063|
|         405|   -3.382758|   -6.711736|    0.823185|    0.012060|
|         406|   -3.437253|   -6.725863|    0.823154|    0.012056|
|         407|   -3.507550|   -6.738683|    0.823123|    0.012053|
|         408|   -3.594102|   -6.749928|    0.823092|    0.012049|
|         409|   -3.684495|   -6.759902|    0.823063|    0.012046|
|         410|   -3.762646|   -6.768666|    0.823035|    0.012042|
|         411|   -3.820316|   -6.776109|    0.823007|    0.012039|
|         412|   -3.858889|   -6.782246|    0.822981|    0.012035|
|         413|   -3.881833|   -6.787284|    0.822956|    0.012032|
|         414|   -3.892676|   -6.791538|    0.822932|    0.012028|
|         415|   -3.897145|   -6.795261|    0.822909|    0.012025|
|         416|   -3.901934|   -6.798564|    0.822887|    0.012021|
|         417|   -3.911633|   -6.801474|    0.822867|    0.012018|
|         418|   -3.927410|   -6.804043|    0.822848|    0.012014|
|         419|   -3.947555|   -6.806395|    0.822831|    0.012011|
|         420|   -3.968989|   -6.808676|    0.822815|    0.012008|
|         421|   -3.989097|   -6.811044|    0.822801|    0.012005|
|         422|   -4.007018|   -6.813574|    0.822789|    0.012002|
|         423|   -4.023561|   -6.816292|    0.822777|    0.011999|
|         424|   -4.040060|   -6.819174|    0.822768|    0.011996|
|         425|   -4.057290|   -6.822132|    0.822760|    0.011994|
|         426|   -4.075106|   -6.825116|    0.822753|    0.011991|
|         427|   -4.092694|   -6.828075|    0.822749|    0.011989|
|         428|   -4.109019|   -6.830998|    0.822745|    0.011987|
|         429|   -4.123180|   -6.833896|    0.822744|    0.011985|
|         430|   -4.134599|   -6.836804|    0.822743|    0.011983|
|         431|   -4.143127|   -6.839786|    0.822745|    0.011981|
|         432|   -4.149084|   -6.842886|    0.822747|    0.011980|
|         433|   -4.153228|   -6.846097|    0.822752|    0.011979|
|         434|   -4.156572|   -6.849387|    0.822757|    0.011977|
|         435|   -4.160135|   -6.852793|    0.822764|    0.011977|
|         436|   -4.164715|   -6.856302|    0.822772|    0.011976|
|         437|   -4.170757|   -6.859841|    0.822782|    0.011975|
|         438|   -4.178317|   -6.863323|    0.822792|    0.011975|
|         439|   -4.187086|   -6.866756|    0.822804|    0.011975|
|         440|   -4.196463|   -6.870108|    0.822817|    0.011975|
|         441|   -4.205661|   -6.873379|    0.822830|    0.011975|
|         442|   -4.213887|   -6.876557|    0.822845|    0.011976|
|         443|   -4.220540|   -6.879681|    0.822860|    0.011977|
|         444|   -4.225394|   -6.882770|    0.822877|    0.011977|
|         445|   -4.228660|   -6.885928|    0.822893|    0.011978|
|         446|   -4.230902|   -6.889202|    0.822911|    0.011979|
|         447|   -4.232855|   -6.892633|    0.822929|    0.011981|
|         448|   -4.235216|   -6.896274|    0.822948|    0.011982|
|         449|   -4.238500|   -6.900182|    0.822967|    0.011984|
|         450|   -4.242971|   -6.904436|    0.822987|    0.011985|
|         451|   -4.248642|   -6.909095|    0.823008|    0.011987|
|         452|   -4.255324|   -6.914188|    0.823029|    0.011989|
|         453|   -4.262709|   -6.919750|    0.823050|    0.011991|
|         454|   -4.270447|   -6.925782|    0.823072|    0.011993|
|         455|   -4.278232|   -6.932310|    0.823095|    0.011996|
|         456|   -4.285858|   -6.939335|    0.823117|    0.011998|
|         457|   -4.293242|   -6.946853|    0.823141|    0.012001|
|         458|   -4.300421|   -6.954834|    0.823164|    0.012003|
|         459|   -4.307516|   -6.963276|    0.823188|    0.012006|
|         460|   -4.314690|   -6.972149|    0.823213|    0.012009|
|         461|   -4.322101|   -6.981400|    0.823237|    0.012011|
|         462|   -4.329877|   -6.990951|    0.823262|    0.012014|
|         463|   -4.338097|   -7.000716|    0.823287|    0.012017|
|         464|   -4.346790|   -7.010584|    0.823312|    0.012020|
|         465|   -4.355948|   -7.020449|    0.823337|    0.012023|
|         466|   -4.365534|   -7.030213|    0.823362|    0.012026|
|         467|   -4.375499|   -7.039773|    0.823386|    0.012029|
|         468|   -4.385791|   -7.049019|    0.823411|    0.012032|
|         469|   -4.396360|   -7.057843|    0.823435|    0.012035|
|         470|   -4.407157|   -7.066146|    0.823458|    0.012038|
|         471|   -4.418132|   -7.073844|    0.823480|    0.012041|
|         472|   -4.429232|   -7.080868|    0.823502|    0.012044|
|         473|   -4.440390|   -7.087156|    0.823523|    0.012046|
|         474|   -4.451529|   -7.092656|    0.823543|    0.012049|
|         475|   -4.462557|   -7.097309|    0.823561|    0.012052|
|         476|   -4.473368|   -7.101096|    0.823578|    0.012055|
|         477|   -4.483850|   -7.103905|    0.823594|    0.012057|
|         478|   -4.493885|   -7.105663|    0.823608|    0.012060|
|         479|   -4.503361|   -7.106326|    0.823620|    0.012062|
|         480|   -4.512172|   -7.105830|    0.823630|    0.012064|
|         481|   -4.520229|   -7.104129|    0.823639|    0.012067|
|         482|   -4.527463|   -7.101197|    0.823646|    0.012069|
|         483|   -4.533825|   -7.097045|    0.823650|    0.012071|
|         484|   -4.539294|   -7.091728|    0.823653|    0.012073|
|         485|   -4.543873|   -7.085345|    0.823654|    0.012075|
|         486|   -4.547590|   -7.078040|    0.823652|    0.012076|
|         487|   -4.550495|   -7.070000|    0.823649|    0.012078|
|         488|   -4.552655|   -7.061448|    0.823643|    0.012079|
|         489|   -4.554153|   -7.052612|    0.823636|    0.012081|
|         490|   -4.555077|   -7.043746|    0.823627|    0.012082|
|         491|   -4.555522|   -7.035089|    0.823616|    0.012083|
|         492|   -4.555582|   -7.026872|    0.823603|    0.012084|
|         493|   -4.555347|   -7.019317|    0.823589|    0.012085|
|         494|   -4.554899|   -7.012630|    0.823573|    0.012086|
|         495|   -4.554314|   -7.006978|    0.823555|    0.012087|
|         496|   -4.553657|   -7.002514|    0.823537|    0.012088|
|         497|   -4.552985|   -6.999380|    0.823517|    0.012088|
|         498|   -4.552343|   -6.997675|    0.823496|    0.012089|
|         499|   -4.551768|   -6.997469|    0.823473|    0.012089|
|         500|   -4.551287|   -6.998817|    0.823450|    0.012089|
|         501|   -4.550922|   -7.001741|    0.823426|    0.012129|
+-----------------------------------------------------------------------+
|Fixed CL Mode                           |Value                         |
+-----------------------------------------------------------------------+
|Current CL                              |0.823426                      |
|Target CL                               |0.824                         |
|Previous AOA                            |2.77461                       |
|Changed AoA by                          |0.00274755                    |
+-----------------------------------------------------------------------+
+----------------------------------------------------------------+
|  Inner_Iter|    rms[Rho]|     rms[nu]|          CL|          CD|
+----------------------------------------------------------------+
|         502|   -2.754238|   -6.764439|    0.823402|    0.012129|
|         503|   -3.136635|   -6.856666|    0.823377|    0.012128|
|         504|   -3.375376|   -6.896045|    0.823352|    0.012128|
|         505|   -3.452217|   -6.923604|    0.823327|    0.012128|
|         506|   -3.505875|   -6.947690|    0.823301|    0.012127|
|         507|   -3.575567|   -6.970733|    0.823276|    0.012126|
|         508|   -3.661580|   -6.992226|    0.823250|    0.012125|
|         509|   -3.751772|   -7.012510|    0.823225|    0.012124|
|         510|   -3.830558|   -7.031151|    0.823201|    0.012123|
|         511|   -3.889792|   -7.047224|    0.823176|    0.012122|
|         512|   -3.930352|   -7.059886|    0.823153|    0.012121|
|         513|   -3.955062|   -7.068779|    0.823130|    0.012120|
|         514|   -3.967020|   -7.074026|    0.823108|    0.012118|
|         515|   -3.971880|   -7.075837|    0.823087|    0.012117|
|         516|   -3.976525|   -7.074282|    0.823067|    0.012115|
|         517|   -3.985769|   -7.069458|    0.823048|    0.012113|
|         518|   -4.000932|   -7.061719|    0.823030|    0.012111|
|         519|   -4.020411|   -7.051779|    0.823014|    0.012110|
|         520|   -4.041221|   -7.040452|    0.822999|    0.012108|
|         521|   -4.060834|   -7.028447|    0.822985|    0.012106|
|         522|   -4.078430|   -7.016268|    0.822972|    0.012104|
|         523|   -4.094790|   -7.004270|    0.822961|    0.012102|
|         524|   -4.111170|   -6.992720|    0.822951|    0.012100|
|         525|   -4.128249|   -6.981676|    0.822943|    0.012098|
|         526|   -4.145806|   -6.971188|    0.822936|    0.012096|
|         527|   -4.162989|   -6.961364|    0.822930|    0.012094|
|         528|   -4.178778|   -6.952300|    0.822926|    0.012092|
|         529|   -4.192346|   -6.944085|    0.822923|    0.012090|
|         530|   -4.203238|   -6.936757|    0.822922|    0.012088|
|         531|   -4.211430|   -6.930373|    0.822922|    0.012086|
|         532|   -4.217347|   -6.924975|    0.822923|    0.012084|
|         533|   -4.221786|   -6.920567|    0.822925|    0.012082|
|         534|   -4.225751|   -6.917085|    0.822928|    0.012081|
|         535|   -4.230213|   -6.914464|    0.822933|    0.012079|
|         536|   -4.235917|   -6.912636|    0.822939|    0.012078|
|         537|   -4.243258|   -6.911488|    0.822946|    0.012076|
|         538|   -4.252255|   -6.910825|    0.822953|    0.012075|
|         539|   -4.262571|   -6.910561|    0.822962|    0.012073|
|         540|   -4.273570|   -6.910573|    0.822971|    0.012072|
|         541|   -4.284430|   -6.910742|    0.822982|    0.012071|
|         542|   -4.294303|   -6.910978|    0.822993|    0.012070|
|         543|   -4.302535|   -6.911220|    0.823004|    0.012069|
|         544|   -4.308854|   -6.911422|    0.823017|    0.012068|
|         545|   -4.313450|   -6.911583|    0.823030|    0.012067|
|         546|   -4.316900|   -6.911684|    0.823043|    0.012066|
|         547|   -4.319972|   -6.911733|    0.823057|    0.012065|
|         548|   -4.323413|   -6.911731|    0.823072|    0.012064|
|         549|   -4.327781|   -6.911697|    0.823087|    0.012064|
|         550|   -4.333370|   -6.911668|    0.823103|    0.012063|
|         551|   -4.340203|   -6.911664|    0.823120|    0.012063|
|         552|   -4.348081|   -6.911693|    0.823137|    0.012062|
|         553|   -4.356666|   -6.911751|    0.823154|    0.012062|
|         554|   -4.365566|   -6.911841|    0.823172|    0.012062|
|         555|   -4.374429|   -6.911968|    0.823191|    0.012062|
|         556|   -4.383003|   -6.912126|    0.823211|    0.012062|
|         557|   -4.391174|   -6.912316|    0.823230|    0.012062|
|         558|   -4.398961|   -6.912523|    0.823251|    0.012062|
|         559|   -4.406483|   -6.912759|    0.823272|    0.012062|
|         560|   -4.413908|   -6.913019|    0.823294|    0.012062|
|         561|   -4.421407|   -6.913302|    0.823316|    0.012063|
|         562|   -4.429115|   -6.913617|    0.823338|    0.012063|
|         563|   -4.437117|   -6.913980|    0.823361|    0.012063|
|         564|   -4.445446|   -6.914412|    0.823385|    0.012064|
|         565|   -4.454092|   -6.914946|    0.823409|    0.012064|
|         566|   -4.463022|   -6.915624|    0.823432|    0.012065|
|         567|   -4.472192|   -6.916502|    0.823456|    0.012065|
|         568|   -4.481558|   -6.917632|    0.823480|    0.012066|
|         569|   -4.491087|   -6.919066|    0.823504|    0.012067|
|         570|   -4.500755|   -6.920838|    0.823528|    0.012067|
|         571|   -4.510543|   -6.922987|    0.823551|    0.012068|
|         572|   -4.520430|   -6.925544|    0.823574|    0.012069|
|         573|   -4.530395|   -6.928522|    0.823597|    0.012069|
|         574|   -4.540406|   -6.931914|    0.823618|    0.012070|
|         575|   -4.550421|   -6.935695|    0.823639|    0.012071|
|         576|   -4.560390|   -6.939800|    0.823658|    0.012071|
|         577|   -4.570255|   -6.944160|    0.823677|    0.012072|
|         578|   -4.579955|   -6.948685|    0.823694|    0.012073|
|         579|   -4.589428|   -6.953247|    0.823710|    0.012073|
|         580|   -4.598617|   -6.957684|    0.823725|    0.012074|
|         581|   -4.607471|   -6.961828|    0.823738|    0.012074|
|         582|   -4.615947|   -6.965505|    0.823749|    0.012075|
|         583|   -4.624011|   -6.968546|    0.823759|    0.012075|
|         584|   -4.631643|   -6.970802|    0.823767|    0.012076|
|         585|   -4.638832|   -6.972157|    0.823773|    0.012076|
|         586|   -4.645579|   -6.972538|    0.823778|    0.012076|
|         587|   -4.651897|   -6.971926|    0.823780|    0.012077|
|         588|   -4.657807|   -6.970360|    0.823781|    0.012077|
|         589|   -4.663342|   -6.967932|    0.823781|    0.012077|
|         590|   -4.668539|   -6.964781|    0.823778|    0.012077|
|         591|   -4.673441|   -6.961081|    0.823774|    0.012078|
|         592|   -4.678092|   -6.957030|    0.823769|    0.012078|
|         593|   -4.682538|   -6.952832|    0.823762|    0.012078|
|         594|   -4.686824|   -6.948690|    0.823753|    0.012078|
|         595|   -4.690991|   -6.944794|    0.823743|    0.012078|
|         596|   -4.695075|   -6.941314|    0.823732|    0.012078|
|         597|   -4.699109|   -6.938393|    0.823720|    0.012078|
|         598|   -4.703119|   -6.936149|    0.823706|    0.012078|
|         599|   -4.707128|   -6.934666|    0.823692|    0.012077|
|         600|   -4.711151|   -6.933996|    0.823676|    0.012077|
|         601|   -4.715201|   -6.934159|    0.823660|    0.012100|
+-----------------------------------------------------------------------+
|Fixed CL Mode                           |Value                         |
+-----------------------------------------------------------------------+
|Current CL                              |0.82366                       |
|Target CL                               |0.824                         |
|Previous AOA                            |2.77736                       |
|Changed AoA by                          |0.00161925                    |
+-----------------------------------------------------------------------+
+----------------------------------------------------------------+
|  Inner_Iter|    rms[Rho]|     rms[nu]|          CL|          CD|
+----------------------------------------------------------------+
|         602|   -2.983913|   -6.843884|    0.823643|    0.012100|
|         603|   -3.366228|   -6.885707|    0.823625|    0.012099|
|         604|   -3.603714|   -6.901381|    0.823607|    0.012099|
|         605|   -3.678995|   -6.912005|    0.823588|    0.012098|
|         606|   -3.731596|   -6.921038|    0.823569|    0.012098|
|         607|   -3.800422|   -6.929079|    0.823550|    0.012097|
|         608|   -3.885650|   -6.936363|    0.823531|    0.012097|
|         609|   -3.975414|   -6.942870|    0.823512|    0.012096|
|         610|   -4.054683|   -6.948459|    0.823492|    0.012095|
|         611|   -4.115559|   -6.952909|    0.823473|    0.012094|
|         612|   -4.158559|   -6.956003|    0.823455|    0.012094|
|         613|   -4.185860|   -6.957641|    0.823436|    0.012093|
|         614|   -4.199955|   -6.957830|    0.823418|    0.012092|
|         615|   -4.206230|   -6.956595|    0.823401|    0.012091|
|         616|   -4.211703|   -6.953959|    0.823384|    0.012090|
|         617|   -4.221482|   -6.949967|    0.823368|    0.012089|
|         618|   -4.237137|   -6.944745|    0.823352|    0.012088|
|         619|   -4.257221|   -6.938502|    0.823337|    0.012087|
|         620|   -4.278834|   -6.931498|    0.823323|    0.012086|
|         621|   -4.299482|   -6.923992|    0.823310|    0.012085|
|         622|   -4.318357|   -6.916218|    0.823298|    0.012084|
|         623|   -4.336236|   -6.908368|    0.823287|    0.012082|
|         624|   -4.354348|   -6.900596|    0.823277|    0.012081|
|         625|   -4.373295|   -6.893036|    0.823267|    0.012080|
|         626|   -4.392705|   -6.885815|    0.823259|    0.012079|
|         627|   -4.411511|   -6.879031|    0.823252|    0.012078|
|         628|   -4.428475|   -6.872765|    0.823245|    0.012077|
|         629|   -4.442623|   -6.867078|    0.823240|    0.012076|
|         630|   -4.453469|   -6.862015|    0.823235|    0.012075|
|         631|   -4.461100|   -6.857605|    0.823231|    0.012075|
|         632|   -4.466138|   -6.853848|    0.823229|    0.012074|
|         633|   -4.469608|   -6.850756|    0.823227|    0.012073|
|         634|   -4.472703|   -6.848312|    0.823226|    0.012072|
|         635|   -4.476515|   -6.846486|    0.823225|    0.012071|
|         636|   -4.481825|   -6.845233|    0.823226|    0.012071|
|         637|   -4.489006|   -6.844486|    0.823227|    0.012070|
|         638|   -4.498006|   -6.844171|    0.823229|    0.012070|
|         639|   -4.508388|   -6.844219|    0.823232|    0.012069|
|         640|   -4.519398|   -6.844564|    0.823235|    0.012068|
|         641|   -4.530094|   -6.845138|    0.823238|    0.012068|
|         642|   -4.539533|   -6.845873|    0.823242|    0.012068|
|         643|   -4.547014|   -6.846709|    0.823247|    0.012067|
|         644|   -4.552285|   -6.847601|    0.823252|    0.012067|
|         645|   -4.555612|   -6.848502|    0.823257|    0.012067|
|         646|   -4.557678|   -6.849379|    0.823263|    0.012066|
|         647|   -4.559352|   -6.850207|    0.823269|    0.012066|
|         648|   -4.561449|   -6.850956|    0.823275|    0.012066|
|         649|   -4.564566|   -6.851609|    0.823282|    0.012066|
|         650|   -4.569008|   -6.852155|    0.823289|    0.012066|
|         651|   -4.574794|   -6.852586|    0.823296|    0.012066|
|         652|   -4.581719|   -6.852898|    0.823304|    0.012066|
|         653|   -4.589437|   -6.853088|    0.823312|    0.012066|
|         654|   -4.597563|   -6.853159|    0.823320|    0.012066|
|         655|   -4.605751|   -6.853117|    0.823328|    0.012066|
|         656|   -4.613767|   -6.852971|    0.823337|    0.012066|
|         657|   -4.621514|   -6.852725|    0.823346|    0.012066|
|         658|   -4.629030|   -6.852393|    0.823355|    0.012067|
|         659|   -4.636447|   -6.851985|    0.823365|    0.012067|
|         660|   -4.643943|   -6.851512|    0.823375|    0.012067|
|         661|   -4.651694|   -6.850992|    0.823385|    0.012067|
|         662|   -4.659841|   -6.850443|    0.823395|    0.012068|
|         663|   -4.668471|   -6.849885|    0.823406|    0.012068|
|         664|   -4.677619|   -6.849342|    0.823417|    0.012068|
|         665|   -4.687280|   -6.848842|    0.823428|    0.012069|
|         666|   -4.697419|   -6.848412|    0.823439|    0.012069|
|         667|   -4.707993|   -6.848086|    0.823450|    0.012069|
|         668|   -4.718960|   -6.847894|    0.823462|    0.012070|
|         669|   -4.730286|   -6.847869|    0.823473|    0.012070|
|         670|   -4.741945|   -6.848042|    0.823484|    0.012070|
|         671|   -4.753915|   -6.848440|    0.823495|    0.012071|
|         672|   -4.766177|   -6.849087|    0.823506|    0.012071|
|         673|   -4.778702|   -6.850001|    0.823517|    0.012072|
|         674|   -4.791451|   -6.851192|    0.823527|    0.012072|
|         675|   -4.804369|   -6.852656|    0.823537|    0.012072|
|         676|   -4.817388|   -6.854390|    0.823547|    0.012073|
|         677|   -4.830425|   -6.856374|    0.823556|    0.012073|
|         678|   -4.843384|   -6.858588|    0.823564|    0.012073|
|         679|   -4.856164|   -6.861006|    0.823572|    0.012074|
|         680|   -4.868657|   -6.863587|    0.823579|    0.012074|
|         681|   -4.880759|   -6.866282|    0.823586|    0.012074|
|         682|   -4.892367|   -6.869037|    0.823591|    0.012075|
|         683|   -4.903389|   -6.871789|    0.823596|    0.012075|
|         684|   -4.913743|   -6.874471|    0.823600|    0.012075|
|         685|   -4.923365|   -6.877023|    0.823603|    0.012075|
|         686|   -4.932209|   -6.879388|    0.823605|    0.012075|
|         687|   -4.940251|   -6.881519|    0.823607|    0.012076|
|         688|   -4.947488|   -6.883379|    0.823607|    0.012076|
|         689|   -4.953939|   -6.884942|    0.823606|    0.012076|
|         690|   -4.959643|   -6.886197|    0.823605|    0.012076|
|         691|   -4.964652|   -6.887158|    0.823603|    0.012076|
|         692|   -4.969035|   -6.887849|    0.823600|    0.012076|
|         693|   -4.972866|   -6.888312|    0.823596|    0.012076|
|         694|   -4.976223|   -6.888601|    0.823592|    0.012076|
|         695|   -4.979187|   -6.888781|    0.823586|    0.012076|
|         696|   -4.981834|   -6.888920|    0.823580|    0.012076|
|         697|   -4.984236|   -6.889089|    0.823574|    0.012076|
|         698|   -4.986459|   -6.889359|    0.823566|    0.012076|
|         699|   -4.988563|   -6.889796|    0.823559|    0.012075|
|         700|   -4.990600|   -6.890459|    0.823550|    0.012075|
|         701|   -4.992617|   -6.891399|    0.823541|    0.012107|
+-----------------------------------------------------------------------+
|Fixed CL Mode                           |Value                         |
+-----------------------------------------------------------------------+
|Current CL                              |0.823541                      |
|Target CL                               |0.824                         |
|Previous AOA                            |2.77898                       |
|Changed AoA by                          |0.00224787                    |
+-----------------------------------------------------------------------+
+----------------------------------------------------------------+
|  Inner_Iter|    rms[Rho]|     rms[nu]|          CL|          CD|
+----------------------------------------------------------------+
|         702|   -2.841596|   -6.764774|    0.823532|    0.012107|
|         703|   -3.225502|   -6.821423|    0.823523|    0.012107|
|         704|   -3.467543|   -6.842108|    0.823513|    0.012106|
|         705|   -3.545126|   -6.855086|    0.823503|    0.012106|
|         706|   -3.598425|   -6.865595|    0.823493|    0.012105|
|         707|   -3.668002|   -6.874734|    0.823482|    0.012105|
|         708|   -3.754377|   -6.882818|    0.823472|    0.012104|
|         709|   -3.845291|   -6.890183|    0.823461|    0.012104|
|         710|   -3.924781|   -6.896903|    0.823451|    0.012103|
|         711|   -3.984374|   -6.902948|    0.823441|    0.012102|
|         712|   -4.024960|   -6.908302|    0.823430|    0.012102|
|         713|   -4.049551|   -6.913070|    0.823421|    0.012101|
|         714|   -4.061424|   -6.917457|    0.823411|    0.012100|
|         715|   -4.066388|   -6.921598|    0.823401|    0.012099|
|         716|   -4.071444|   -6.925499|    0.823392|    0.012098|
|         717|   -4.081469|   -6.929094|    0.823383|    0.012097|
|         718|   -4.097785|   -6.932330|    0.823375|    0.012096|
|         719|   -4.118720|   -6.935215|    0.823367|    0.012095|
|         720|   -4.141141|   -6.937812|    0.823360|    0.012094|
|         721|   -4.162356|   -6.940186|    0.823353|    0.012093|
|         722|   -4.181463|   -6.942348|    0.823346|    0.012092|
|         723|   -4.199304|   -6.944282|    0.823340|    0.012091|
|         724|   -4.217281|   -6.945941|    0.823335|    0.012090|
|         725|   -4.236202|   -6.947310|    0.823330|    0.012089|
|         726|   -4.255890|   -6.948388|    0.823326|    0.012088|
|         727|   -4.275428|   -6.949135|    0.823322|    0.012087|
|         728|   -4.293639|   -6.949560|    0.823319|    0.012086|
|         729|   -4.309493|   -6.949725|    0.823316|    0.012085|
|         730|   -4.322339|   -6.949696|    0.823314|    0.012084|
|         731|   -4.332037|   -6.949517|    0.823313|    0.012083|
|         732|   -4.339010|   -6.949254|    0.823312|    0.012082|
|         733|   -4.344182|   -6.948967|    0.823312|    0.012081|
|         734|   -4.348766|   -6.948714|    0.823312|    0.012080|
|         735|   -4.353967|   -6.948547|    0.823313|    0.012079|
|         736|   -4.360728|   -6.948462|    0.823314|    0.012078|
|         737|   -4.369591|   -6.948459|    0.823316|    0.012077|
|         738|   -4.380648|   -6.948527|    0.823318|    0.012076|
|         739|   -4.393554|   -6.948623|    0.823321|    0.012075|
|         740|   -4.407580|   -6.948727|    0.823324|    0.012075|
|         741|   -4.421705|   -6.948794|    0.823328|    0.012074|
|         742|   -4.434813|   -6.948796|    0.823332|    0.012073|
|         743|   -4.445962|   -6.948699|    0.823337|    0.012073|
|         744|   -4.454672|   -6.948517|    0.823342|    0.012072|
|         745|   -4.461082|   -6.948264|    0.823348|    0.012072|
|         746|   -4.465881|   -6.947942|    0.823354|    0.012071|
|         747|   -4.470064|   -6.947538|    0.823361|    0.012071|
|         748|   -4.474627|   -6.947076|    0.823368|    0.012071|
|         749|   -4.480342|   -6.946555|    0.823376|    0.012071|
|         750|   -4.487641|   -6.945964|    0.823384|    0.012070|
|         751|   -4.496602|   -6.945283|    0.823393|    0.012070|
|         752|   -4.507008|   -6.944513|    0.823402|    0.012070|
|         753|   -4.518436|   -6.943647|    0.823412|    0.012070|
|         754|   -4.530369|   -6.942678|    0.823422|    0.012070|
|         755|   -4.542318|   -6.941613|    0.823434|    0.012070|
|         756|   -4.553915|   -6.940471|    0.823445|    0.012070|
|         757|   -4.564976|   -6.939264|    0.823458|    0.012071|
|         758|   -4.575511|   -6.937993|    0.823471|    0.012071|
|         759|   -4.585683|   -6.936691|    0.823484|    0.012071|
|         760|   -4.595744|   -6.935392|    0.823498|    0.012072|
|         761|   -4.605961|   -6.934128|    0.823513|    0.012072|
|         762|   -4.616560|   -6.932939|    0.823528|    0.012072|
|         763|   -4.627699|   -6.931875|    0.823544|    0.012073|
|         764|   -4.639459|   -6.930990|    0.823560|    0.012074|
|         765|   -4.651859|   -6.930338|    0.823576|    0.012074|
|         766|   -4.664876|   -6.929975|    0.823593|    0.012075|
|         767|   -4.678469|   -6.929945|    0.823609|    0.012075|
|         768|   -4.692599|   -6.930294|    0.823626|    0.012076|
|         769|   -4.707238|   -6.931059|    0.823643|    0.012077|
|         770|   -4.722373|   -6.932266|    0.823659|    0.012078|
|         771|   -4.738003|   -6.933923|    0.823676|    0.012078|
|         772|   -4.754128|   -6.936029|    0.823692|    0.012079|
|         773|   -4.770740|   -6.938571|    0.823707|    0.012080|
|         774|   -4.787814|   -6.941519|    0.823722|    0.012080|
|         775|   -4.805301|   -6.944822|    0.823736|    0.012081|
|         776|   -4.823124|   -6.948413|    0.823750|    0.012082|
|         777|   -4.841181|   -6.952212|    0.823763|    0.012082|
|         778|   -4.859338|   -6.956111|    0.823774|    0.012083|
|         779|   -4.877442|   -6.959977|    0.823785|    0.012084|
|         780|   -4.895315|   -6.963713|    0.823794|    0.012084|
|         781|   -4.912770|   -6.967202|    0.823803|    0.012085|
|         782|   -4.929607|   -6.970327|    0.823810|    0.012085|
|         783|   -4.945627|   -6.972979|    0.823816|    0.012085|
|         784|   -4.960643|   -6.975066|    0.823820|    0.012086|
|         785|   -4.974485|   -6.976520|    0.823823|    0.012086|
|         786|   -4.987015|   -6.977297|    0.823825|    0.012087|
|         787|   -4.998139|   -6.977399|    0.823826|    0.012087|
|         788|   -5.007811|   -6.976861|    0.823826|    0.012087|
|         789|   -5.016041|   -6.975750|    0.823824|    0.012087|
|         790|   -5.022889|   -6.974160|    0.823821|    0.012087|
|         791|   -5.028459|   -6.972207|    0.823817|    0.012088|
|         792|   -5.032891|   -6.970022|    0.823811|    0.012088|
|         793|   -5.036347|   -6.967749|    0.823805|    0.012088|
|         794|   -5.039000|   -6.965528|    0.823798|    0.012088|
|         795|   -5.041020|   -6.963492|    0.823790|    0.012088|
|         796|   -5.042569|   -6.961762|    0.823781|    0.012088|
|         797|   -5.043793|   -6.960446|    0.823771|    0.012088|
|         798|   -5.044818|   -6.959632|    0.823761|    0.012088|
|         799|   -5.045753|   -6.959390|    0.823750|    0.012088|
|         800|   -5.046683|   -6.959766|    0.823738|    0.012088|
|         801|   -5.047679|   -6.960790|    0.823726|    0.012106|
+-----------------------------------------------------------------------+
|Fixed CL Mode                           |Value                         |
+-----------------------------------------------------------------------+
|Current CL                              |0.823726                      |
|Target CL                               |0.824                         |
|Previous AOA                            |2.78123                       |
|Changed AoA by                          |0.00131007                    |
+-----------------------------------------------------------------------+
+----------------------------------------------------------------+
|  Inner_Iter|    rms[Rho]|     rms[nu]|          CL|          CD|
+----------------------------------------------------------------+
|         802|   -3.076037|   -6.892516|    0.823713|    0.012106|
|         803|   -3.459362|   -6.926871|    0.823700|    0.012106|
|         804|   -3.699629|   -6.939951|    0.823687|    0.012106|
|         805|   -3.776208|   -6.949108|    0.823674|    0.012105|
|         806|   -3.829105|   -6.957113|    0.823661|    0.012105|
|         807|   -3.898247|   -6.964562|    0.823648|    0.012105|
|         808|   -3.984032|   -6.971662|    0.823634|    0.012104|
|         809|   -4.074412|   -6.978424|    0.823621|    0.012104|
|         810|   -4.153907|   -6.984827|    0.823608|    0.012103|
|         811|   -4.214351|   -6.990778|    0.823595|    0.012103|
|         812|   -4.256446|   -6.996177|    0.823583|    0.012103|
|         813|   -4.282746|   -7.000987|    0.823570|    0.012102|
|         814|   -4.296070|   -7.005238|    0.823559|    0.012101|
|         815|   -4.301983|   -7.008938|    0.823547|    0.012101|
|         816|   -4.307519|   -7.012050|    0.823537|    0.012100|
|         817|   -4.317721|   -7.014521|    0.823526|    0.012100|
|         818|   -4.334082|   -7.016329|    0.823517|    0.012099|
|         819|   -4.355068|   -7.017509|    0.823507|    0.012098|
|         820|   -4.377672|   -7.018137|    0.823499|    0.012098|
|         821|   -4.399297|   -7.018306|    0.823491|    0.012097|
|         822|   -4.419097|   -7.018098|    0.823484|    0.012097|
|         823|   -4.437910|   -7.017584|    0.823478|    0.012096|
|         824|   -4.457083|   -7.016831|    0.823472|    0.012095|
|         825|   -4.477335|   -7.015907|    0.823467|    0.012095|
|         826|   -4.498352|   -7.014877|    0.823463|    0.012094|
|         827|   -4.519048|   -7.013826|    0.823460|    0.012093|
|         828|   -4.538075|   -7.012841|    0.823457|    0.012093|
|         829|   -4.554283|   -7.011990|    0.823455|    0.012092|
|         830|   -4.566996|   -7.011332|    0.823454|    0.012091|
|         831|   -4.576153|   -7.010925|    0.823453|    0.012091|
|         832|   -4.582333|   -7.010821|    0.823453|    0.012090|
|         833|   -4.586631|   -7.011048|    0.823454|    0.012089|
|         834|   -4.590389|   -7.011617|    0.823455|    0.012089|
|         835|   -4.594878|   -7.012523|    0.823457|    0.012088|
|         836|   -4.601040|   -7.013756|    0.823460|    0.012088|
|         837|   -4.609369|   -7.015284|    0.823463|    0.012087|
|         838|   -4.619880|   -7.017068|    0.823466|    0.012087|
|         839|   -4.632140|   -7.019067|    0.823470|    0.012086|
|         840|   -4.645328|   -7.021234|    0.823474|    0.012086|
|         841|   -4.658357|   -7.023523|    0.823479|    0.012085|
|         842|   -4.670082|   -7.025883|    0.823484|    0.012085|
|         843|   -4.679593|   -7.028283|    0.823490|    0.012084|
|         844|   -4.686488|   -7.030704|    0.823496|    0.012084|
|         845|   -4.691008|   -7.033123|    0.823502|    0.012083|
|         846|   -4.693928|   -7.035524|    0.823508|    0.012083|
|         847|   -4.696283|   -7.037889|    0.823514|    0.012083|
|         848|   -4.699067|   -7.040201|    0.823521|    0.012082|
|         849|   -4.703019|   -7.042445|    0.823528|    0.012082|
|         850|   -4.708527|   -7.044607|    0.823535|    0.012081|
|         851|   -4.715636|   -7.046674|    0.823543|    0.012081|
|         852|   -4.724111|   -7.048624|    0.823550|    0.012081|
|         853|   -4.733539|   -7.050431|    0.823558|    0.012080|
|         854|   -4.743438|   -7.052086|    0.823566|    0.012080|
|         855|   -4.753368|   -7.053576|    0.823574|    0.012080|
|         856|   -4.763020|   -7.054884|    0.823582|    0.012079|
|         857|   -4.772257|   -7.056005|    0.823591|    0.012079|
|         858|   -4.781118|   -7.056930|    0.823600|    0.012079|
|         859|   -4.789772|   -7.057650|    0.823609|    0.012078|
|         860|   -4.798457|   -7.058160|    0.823618|    0.012078|
|         861|   -4.807416|   -7.058457|    0.823627|    0.012078|
|         862|   -4.816851|   -7.058546|    0.823637|    0.012078|
|         863|   -4.826896|   -7.058438|    0.823646|    0.012077|
|         864|   -4.837622|   -7.058155|    0.823656|    0.012077|
|         865|   -4.849041|   -7.057726|    0.823666|    0.012077|
|         866|   -4.861135|   -7.057188|    0.823676|    0.012077|
|         867|   -4.873867|   -7.056585|    0.823686|    0.012076|
|         868|   -4.887205|   -7.055966|    0.823696|    0.012076|
|         869|   -4.901127|   -7.055387|    0.823706|    0.012076|
|         870|   -4.915621|   -7.054901|    0.823716|    0.012076|
|         871|   -4.930686|   -7.054563|    0.823726|    0.012076|
|         872|   -4.946320|   -7.054423|    0.823736|    0.012076|
|         873|   -4.962511|   -7.054524|    0.823745|    0.012076|
|         874|   -4.979229|   -7.054900|    0.823754|    0.012075|
|         875|   -4.996422|   -7.055569|    0.823763|    0.012075|
|         876|   -5.014008|   -7.056550|    0.823771|    0.012075|
|         877|   -5.031876|   -7.057844|    0.823779|    0.012075|
|         878|   -5.049883|   -7.059423|    0.823787|    0.012075|
|         879|   -5.067860|   -7.061265|    0.823794|    0.012075|
|         880|   -5.085611|   -7.063333|    0.823800|    0.012075|
|         881|   -5.102917|   -7.065572|    0.823806|    0.012075|
|         882|   -5.119546|   -7.067916|    0.823811|    0.012075|
|         883|   -5.135258|   -7.070286|    0.823816|    0.012075|
|         884|   -5.149818|   -7.072601|    0.823820|    0.012075|
|         885|   -5.163012|   -7.074777|    0.823823|    0.012075|
|         886|   -5.174659|   -7.076735|    0.823825|    0.012075|
|         887|   -5.184631|   -7.078403|    0.823827|    0.012075|
|         888|   -5.192856|   -7.079728|    0.823828|    0.012075|
|         889|   -5.199334|   -7.080669|    0.823829|    0.012075|
|         890|   -5.204129|   -7.081211|    0.823828|    0.012075|
|         891|   -5.207364|   -7.081361|    0.823827|    0.012075|
|         892|   -5.209206|   -7.081145|    0.823826|    0.012075|
|         893|   -5.209853|   -7.080614|    0.823824|    0.012075|
|         894|   -5.209519|   -7.079835|    0.823821|    0.012075|
|         895|   -5.208415|   -7.078888|    0.823818|    0.012075|
|         896|   -5.206745|   -7.077862|    0.823814|    0.012075|
|         897|   -5.204693|   -7.076849|    0.823809|    0.012075|
|         898|   -5.202423|   -7.075939|    0.823805|    0.012075|
|         899|   -5.200077|   -7.075219|    0.823799|    0.012075|
|         900|   -5.197774|   -7.074765|    0.823794|    0.012075|
|         901|   -5.195610|   -7.074641|    0.823787|    0.012090|
+-----------------------------------------------------------------------+
|Fixed CL Mode                           |Value                         |
+-----------------------------------------------------------------------+
|Current CL                              |0.823787                      |
|Target CL                               |0.824                         |
|Previous AOA                            |2.78254                       |
[...]
|        5298|   -6.031415|   -7.999386|    0.824237|    0.012059|
|        5299|   -6.038057|   -8.003004|    0.824238|    0.012059|
|        5300|   -6.044315|   -8.006712|    0.824238|    0.012059|
|        5301|   -6.050150|   -8.010529|    0.824238|    0.012059|
|        5302|   -6.055537|   -8.014468|    0.824238|    0.012059|
|        5303|   -6.060460|   -8.018541|    0.824238|    0.012059|
|        5304|   -6.064914|   -8.022753|    0.824238|    0.012058|
|        5305|   -6.068908|   -8.027105|    0.824239|    0.012058|
|        5306|   -6.072461|   -8.031597|    0.824239|    0.012058|
|        5307|   -6.075601|   -8.036226|    0.824239|    0.012058|
|        5308|   -6.078368|   -8.040986|    0.824239|    0.012058|
|        5309|   -6.080804|   -8.045873|    0.824239|    0.012058|
|        5310|   -6.082962|   -8.050879|    0.824239|    0.012058|
|        5311|   -6.084894|   -8.055999|    0.824239|    0.012058|
|        5312|   -6.086655|   -8.061226|    0.824240|    0.012058|
|        5313|   -6.088302|   -8.066557|    0.824240|    0.012058|
|        5314|   -6.089887|   -8.071987|    0.824240|    0.012058|
|        5315|   -6.091461|   -8.077514|    0.824240|    0.012058|
|        5316|   -6.093072|   -8.083136|    0.824240|    0.012058|
|        5317|   -6.094760|   -8.088853|    0.824240|    0.012058|
|        5318|   -6.096564|   -8.094664|    0.824241|    0.012059|
|        5319|   -6.098513|   -8.100570|    0.824241|    0.012059|
|        5320|   -6.100632|   -8.106571|    0.824241|    0.012059|
|        5321|   -6.102939|   -8.112666|    0.824241|    0.012059|
|        5322|   -6.105446|   -8.118854|    0.824241|    0.012059|
|        5323|   -6.108157|   -8.125134|    0.824242|    0.012059|
|        5324|   -6.111071|   -8.131500|    0.824242|    0.012059|
|        5325|   -6.114179|   -8.137948|    0.824242|    0.012059|
|        5326|   -6.117469|   -8.144470|    0.824242|    0.012059|
|        5327|   -6.120921|   -8.151056|    0.824242|    0.012059|
|        5328|   -6.124509|   -8.157694|    0.824243|    0.012059|
|        5329|   -6.128205|   -8.164372|    0.824243|    0.012059|
|        5330|   -6.131975|   -8.171073|    0.824243|    0.012059|
|        5331|   -6.135783|   -8.177781|    0.824243|    0.012059|
|        5332|   -6.139591|   -8.184478|    0.824244|    0.012060|
|        5333|   -6.143359|   -8.191147|    0.824244|    0.012060|
|        5334|   -6.147048|   -8.197770|    0.824244|    0.012060|
|        5335|   -6.150620|   -8.204328|    0.824244|    0.012060|
|        5336|   -6.154042|   -8.210806|    0.824244|    0.012060|
|        5337|   -6.157282|   -8.217189|    0.824245|    0.012060|
|        5338|   -6.160315|   -8.223465|    0.824245|    0.012060|
|        5339|   -6.163123|   -8.229624|    0.824245|    0.012060|
|        5340|   -6.165693|   -8.235658|    0.824245|    0.012060|
|        5341|   -6.168021|   -8.241565|    0.824245|    0.012060|
|        5342|   -6.170111|   -8.247344|    0.824246|    0.012060|
|        5343|   -6.171974|   -8.252998|    0.824246|    0.012060|
|        5344|   -6.173628|   -8.258533|    0.824246|    0.012061|
|        5345|   -6.175098|   -8.263958|    0.824246|    0.012061|
|        5346|   -6.176414|   -8.269283|    0.824246|    0.012061|
|        5347|   -6.177612|   -8.274523|    0.824247|    0.012061|
|        5348|   -6.178730|   -8.279693|    0.824247|    0.012061|
|        5349|   -6.179808|   -8.284809|    0.824247|    0.012061|
|        5350|   -6.180887|   -8.289888|    0.824247|    0.012061|
|        5351|   -6.182009|   -8.294949|    0.824247|    0.012061|
|        5352|   -6.183215|   -8.300008|    0.824248|    0.012061|
|        5353|   -6.184543|   -8.305081|    0.824248|    0.012061|
|        5354|   -6.186029|   -8.310185|    0.824248|    0.012061|
|        5355|   -6.187705|   -8.315332|    0.824248|    0.012061|
|        5356|   -6.189601|   -8.320537|    0.824248|    0.012061|
|        5357|   -6.191742|   -8.325808|    0.824248|    0.012061|
|        5358|   -6.194148|   -8.331156|    0.824248|    0.012061|
|        5359|   -6.196837|   -8.336587|    0.824249|    0.012061|
|        5360|   -6.199819|   -8.342105|    0.824249|    0.012061|
|        5361|   -6.203103|   -8.347714|    0.824249|    0.012061|
|        5362|   -6.206691|   -8.353414|    0.824249|    0.012061|
|        5363|   -6.210580|   -8.359204|    0.824249|    0.012061|
|        5364|   -6.214763|   -8.365080|    0.824249|    0.012061|
|        5365|   -6.219229|   -8.371038|    0.824249|    0.012061|
|        5366|   -6.223961|   -8.377071|    0.824249|    0.012061|
|        5367|   -6.228938|   -8.383172|    0.824250|    0.012061|
|        5368|   -6.234134|   -8.389330|    0.824250|    0.012061|
|        5369|   -6.239520|   -8.395535|    0.824250|    0.012061|
|        5370|   -6.245061|   -8.401775|    0.824250|    0.012061|
|        5371|   -6.250720|   -8.408037|    0.824250|    0.012061|
|        5372|   -6.256455|   -8.414309|    0.824250|    0.012061|
|        5373|   -6.262222|   -8.420577|    0.824250|    0.012061|
|        5374|   -6.267976|   -8.426826|    0.824250|    0.012061|
|        5375|   -6.273668|   -8.433044|    0.824250|    0.012061|
|        5376|   -6.279252|   -8.439216|    0.824251|    0.012061|
|        5377|   -6.284680|   -8.445329|    0.824251|    0.012061|
|        5378|   -6.289907|   -8.451371|    0.824251|    0.012061|
|        5379|   -6.294891|   -8.457327|    0.824251|    0.012060|
|        5380|   -6.299593|   -8.463185|    0.824251|    0.012060|
|        5381|   -6.303981|   -8.468934|    0.824251|    0.012060|
|        5382|   -6.308027|   -8.474560|    0.824251|    0.012060|
|        5383|   -6.311711|   -8.480050|    0.824252|    0.012060|
|        5384|   -6.315018|   -8.485392|    0.824252|    0.012060|
|        5385|   -6.317942|   -8.490571|    0.824252|    0.012060|
|        5386|   -6.320484|   -8.495572|    0.824252|    0.012060|
|        5387|   -6.322650|   -8.500380|    0.824252|    0.012060|
|        5388|   -6.324453|   -8.504976|    0.824253|    0.012060|
|        5389|   -6.325910|   -8.509342|    0.824253|    0.012060|
|        5390|   -6.327043|   -8.513456|    0.824253|    0.012060|
|        5391|   -6.327878|   -8.517297|    0.824253|    0.012059|
|        5392|   -6.328440|   -8.520840|    0.824253|    0.012059|
|        5393|   -6.328757|   -8.524062|    0.824254|    0.012059|
|        5394|   -6.328857|   -8.526938|    0.824254|    0.012059|
|        5395|   -6.328767|   -8.529445|    0.824254|    0.012059|
|        5396|   -6.328513|   -8.531559|    0.824255|    0.012059|
|        5397|   -6.328118|   -8.533262|    0.824255|    0.012059|
|        5398|   -6.327605|   -8.534535|    0.824255|    0.012059|
|        5399|   -6.326992|   -8.535368|    0.824256|    0.012059|
|        5400|   -6.326297|   -8.535753|    0.824256|    0.012059|
|        5401|   -6.325534|   -8.535689|    0.824256|    0.012059|
|        5402|   -6.324717|   -8.535182|    0.824256|    0.012058|
|        5403|   -6.323854|   -8.534244|    0.824257|    0.012058|
|        5404|   -6.322956|   -8.532893|    0.824257|    0.012058|
|        5405|   -6.322029|   -8.531156|    0.824258|    0.012058|
|        5406|   -6.321079|   -8.529063|    0.824258|    0.012058|
|        5407|   -6.320110|   -8.526650|    0.824258|    0.012058|
|        5408|   -6.319128|   -8.523956|    0.824259|    0.012058|
|        5409|   -6.318135|   -8.521023|    0.824259|    0.012058|
|        5410|   -6.317134|   -8.517893|    0.824259|    0.012058|
|        5411|   -6.316129|   -8.514610|    0.824260|    0.012058|
|        5412|   -6.315122|   -8.511217|    0.824260|    0.012058|
|        5413|   -6.314115|   -8.507754|    0.824260|    0.012058|
|        5414|   -6.313113|   -8.504260|    0.824261|    0.012058|
|        5415|   -6.312119|   -8.500770|    0.824261|    0.012057|
|        5416|   -6.311135|   -8.497316|    0.824261|    0.012057|
|        5417|   -6.310167|   -8.493925|    0.824262|    0.012057|
|        5418|   -6.309218|   -8.490621|    0.824262|    0.012057|
|        5419|   -6.308295|   -8.487424|    0.824262|    0.012057|
|        5420|   -6.307402|   -8.484347|    0.824263|    0.012057|
|        5421|   -6.306545|   -8.481402|    0.824263|    0.012057|
|        5422|   -6.305733|   -8.478598|    0.824263|    0.012057|
|        5423|   -6.304970|   -8.475939|    0.824264|    0.012057|
|        5424|   -6.304265|   -8.473424|    0.824264|    0.012057|
|        5425|   -6.303629|   -8.471052|    0.824264|    0.012057|
|        5426|   -6.303070|   -8.468819|    0.824265|    0.012057|
|        5427|   -6.302599|   -8.466718|    0.824265|    0.012057|
|        5428|   -6.302226|   -8.464742|    0.824265|    0.012057|
|        5429|   -6.301962|   -8.462885|    0.824265|    0.012057|
|        5430|   -6.301819|   -8.461137|    0.824266|    0.012057|
|        5431|   -6.301809|   -8.459489|    0.824266|    0.012057|
|        5432|   -6.301945|   -8.457932|    0.824266|    0.012057|
|        5433|   -6.302238|   -8.456458|    0.824267|    0.012057|
|        5434|   -6.302701|   -8.455058|    0.824267|    0.012057|
|        5435|   -6.303346|   -8.453723|    0.824267|    0.012057|
|        5436|   -6.304184|   -8.452447|    0.824267|    0.012057|
|        5437|   -6.305225|   -8.451222|    0.824268|    0.012057|
|        5438|   -6.306480|   -8.450044|    0.824268|    0.012057|
|        5439|   -6.307958|   -8.448908|    0.824268|    0.012057|
|        5440|   -6.309665|   -8.447809|    0.824268|    0.012058|
|        5441|   -6.311608|   -8.446745|    0.824269|    0.012058|
|        5442|   -6.313790|   -8.445714|    0.824269|    0.012058|
|        5443|   -6.316215|   -8.444714|    0.824269|    0.012058|
|        5444|   -6.318881|   -8.443743|    0.824269|    0.012058|
|        5445|   -6.321786|   -8.442800|    0.824269|    0.012058|
|        5446|   -6.324925|   -8.441886|    0.824270|    0.012058|
|        5447|   -6.328291|   -8.440998|    0.824270|    0.012058|
|        5448|   -6.331873|   -8.440138|    0.824270|    0.012058|
|        5449|   -6.335658|   -8.439303|    0.824270|    0.012058|
|        5450|   -6.339628|   -8.438494|    0.824270|    0.012058|
|        5451|   -6.343765|   -8.437710|    0.824270|    0.012058|
|        5452|   -6.348045|   -8.436950|    0.824271|    0.012058|
|        5453|   -6.352444|   -8.436214|    0.824271|    0.012058|
|        5454|   -6.356933|   -8.435499|    0.824271|    0.012059|
|        5455|   -6.361482|   -8.434805|    0.824271|    0.012059|
|        5456|   -6.366056|   -8.434130|    0.824271|    0.012059|
|        5457|   -6.370621|   -8.433474|    0.824271|    0.012059|
|        5458|   -6.375141|   -8.432834|    0.824271|    0.012059|
|        5459|   -6.379578|   -8.432209|    0.824272|    0.012059|
|        5460|   -6.383895|   -8.431598|    0.824272|    0.012059|
|        5461|   -6.388054|   -8.430998|    0.824272|    0.012059|
|        5462|   -6.392020|   -8.430408|    0.824272|    0.012059|
|        5463|   -6.395759|   -8.429826|    0.824272|    0.012059|
|        5464|   -6.399241|   -8.429251|    0.824272|    0.012059|
|        5465|   -6.402439|   -8.428681|    0.824272|    0.012059|
|        5466|   -6.405331|   -8.428114|    0.824272|    0.012060|
|        5467|   -6.407898|   -8.427547|    0.824272|    0.012060|
|        5468|   -6.410129|   -8.426981|    0.824272|    0.012060|
|        5469|   -6.412017|   -8.426411|    0.824273|    0.012060|
|        5470|   -6.413563|   -8.425836|    0.824273|    0.012060|
|        5471|   -6.414771|   -8.425255|    0.824273|    0.012060|
|        5472|   -6.415653|   -8.424664|    0.824273|    0.012060|
|        5473|   -6.416224|   -8.424062|    0.824273|    0.012060|
|        5474|   -6.416504|   -8.423446|    0.824273|    0.012060|
|        5475|   -6.416519|   -8.422812|    0.824273|    0.012060|
|        5476|   -6.416295|   -8.422159|    0.824273|    0.012060|
|        5477|   -6.415863|   -8.421484|    0.824273|    0.012060|
|        5478|   -6.415254|   -8.420783|    0.824273|    0.012060|
|        5479|   -6.414501|   -8.420054|    0.824273|    0.012060|
|        5480|   -6.413636|   -8.419294|    0.824273|    0.012060|
|        5481|   -6.412692|   -8.418500|    0.824273|    0.012060|
|        5482|   -6.411700|   -8.417669|    0.824273|    0.012060|
|        5483|   -6.410691|   -8.416799|    0.824273|    0.012060|
|        5484|   -6.409693|   -8.415887|    0.824273|    0.012060|
|        5485|   -6.408734|   -8.414931|    0.824274|    0.012060|
|        5486|   -6.407838|   -8.413929|    0.824274|    0.012060|
|        5487|   -6.407028|   -8.412880|    0.824274|    0.012060|
|        5488|   -6.406324|   -8.411783|    0.824274|    0.012060|
|        5489|   -6.405745|   -8.410636|    0.824274|    0.012060|
|        5490|   -6.405306|   -8.409438|    0.824274|    0.012060|
|        5491|   -6.405020|   -8.408190|    0.824274|    0.012060|
|        5492|   -6.404901|   -8.406892|    0.824274|    0.012060|
|        5493|   -6.404956|   -8.405545|    0.824274|    0.012060|
|        5494|   -6.405195|   -8.404148|    0.824274|    0.012060|
|        5495|   -6.405622|   -8.402703|    0.824274|    0.012060|
|        5496|   -6.406242|   -8.401211|    0.824275|    0.012060|
|        5497|   -6.407057|   -8.399675|    0.824275|    0.012060|
|        5498|   -6.408070|   -8.398094|    0.824275|    0.012060|
|        5499|   -6.409279|   -8.396472|    0.824275|    0.012046|
+-----------------------------------------------------------------------+
|Fixed CL Mode (Finite Difference)       |Value                         |
+-----------------------------------------------------------------------+
|Delta CL / Delta AoA                    |0.274615                      |
|Delta CD / Delta CL                     |0.0150213                     |
|Delta CMz / Delta CL                    |0.0237707                     |
+-----------------------------------------------------------------------+
Writing Flow Meta-Data file: flow.meta

----------------------------- Solver Exit -------------------------------

Maximum number of iterations reached (ITER = 5500) before convergence.
+-----------------------------------------------------------------------+
|      Convergence Field     |     Value    |   Criterion  |  Converged |
+-----------------------------------------------------------------------+
|                    rms[Rho]|      -6.40928|         < -12|          No|
+-----------------------------------------------------------------------+
-------------------------------------------------------------------------

--------------------------- Finalizing Solver ---------------------------
Deleted CNumerics container.
Deleted CIntegration container.
Deleted CSolver container.
Deleted CIteration container.
Deleted CInterface container.
Deleted CGeometry container.
Deleted CFreeFormDefBox class.
Deleted CSurfaceMovement class.
Deleted CVolumetricMovement class.
Deleted CConfig container.
Deleted nInst container.
Deleted COutput class.
-------------------------------------------------------------------------

------------------------- Exit Success (SU2_CFD) ------------------------


-------------------------------------------------------------------------
|    ___ _   _ ___                                                      |
|   / __| | | |_  )   Release 8.0.0 "Harrier"                           |
|   \__ \ |_| |/ /                                                      |
|   |___/\___//___|   Suite (Solution Exporting Code)                   |
|                                                                       |
-------------------------------------------------------------------------
| SU2 Project Website: https://su2code.github.io                        |
|                                                                       |
| The SU2 Project is maintained by the SU2 Foundation                   |
| (http://su2foundation.org)                                            |
-------------------------------------------------------------------------
| Copyright 2012-2023, SU2 Contributors                                 |
|                                                                       |
| SU2 is free software; you can redistribute it and/or                  |
| modify it under the terms of the GNU Lesser General Public            |
| License as published by the Free Software Foundation; either          |
| version 2.1 of the License, or (at your option) any later version.    |
|                                                                       |
| SU2 is distributed in the hope that it will be useful,                |
| but WITHOUT ANY WARRANTY; without even the implied warranty of        |
| MERCHANTABILITY or FITNESS FOR A PARTICULAR PURPOSE. See the GNU      |
| Lesser General Public License for more details.                       |
|                                                                       |
| You should have received a copy of the GNU Lesser General Public      |
| License along with SU2. If not, see <http://www.gnu.org/licenses/>.   |
-------------------------------------------------------------------------

----------------- Physical Case Definition ( Zone 0 ) -------------------
Input mesh file name: mesh_RAE2822_turb_deform.su2

-------------------- Output Information ( Zone 0 ) ----------------------
The tabular file format is CSV (.csv).
Flow variables file name: flow.

------------- Config File Boundary Information ( Zone 0 ) ---------------
+-----------------------------------------------------------------------+
|                        Marker Type|                        Marker Name|
+-----------------------------------------------------------------------+
|                          Far-field|                           FARFIELD|
+-----------------------------------------------------------------------+
|                     Heat flux wall|                            AIRFOIL|
+-----------------------------------------------------------------------+
Two dimensional problem.
13937 grid points before partitioning.
22842 volume elements before partitioning.
2 surface markers.
192 boundary elements in index 0 (Marker = AIRFOIL).
40 boundary elements in index 1 (Marker = FARFIELD).
Executing the partitioning functions.
Building the graph adjacency structure.
Calling ParMETIS... graph partitioning complete (831 edge cuts).
Distributing ParMETIS coloring.
Rebalancing vertices.
Rebalancing volume element connectivity.
Rebalancing markers and surface elements.
14875 vertices including ghost points. 
23674 interior elements including halo cells. 
18780 triangles.
4894 quadrilaterals.
Establishing MPI communication patterns.
Identify vertices.
Storing a mapping from global to local point index.

------------------------- Solution Postprocessing -----------------------
Reading and storing the solution from restart_flow.
Volume output fields: COORDINATES, SOLUTION
  Info: Ignoring the following screen output fields:
  RMS_DENSITY, RMS_NU_TILDE, LIFT, DRAG
Screen output fields: INNER_ITER
  Info: Ignoring the following history output groups:
  RMS_RES, AERO_COEFF
History output group(s): ITER
Warning: No (valid) fields chosen for convergence monitoring. Convergence monitoring inactive.
Warning: No (valid) fields chosen for time convergence monitoring. Time convergence monitoring inactive.
|Paraview                           |flow.vtu                           |
|Paraview surface                   |surface_flow.vtu                   |
|CSV file                           |surface_flow.csv                   |

------------------------- Finalize Solver -------------------------
Deleted CGeometry container.
Deleted CSolver class.
Deleted CConfig container.
Deleted COutput class.

Completed in 0.019197 seconds on 6 cores.

------------------------- Exit Success (SU2_SOL) ------------------------

