
-------------------------------------------------------------------------
|    ___ _   _ ___                                                      |
|   / __| | | |_  )   Release 8.0.0 "Harrier"                           |
|   \__ \ |_| |/ /                                                      |
|   |___/\___//___|   Suite (Computational Fluid Dynamics Code)         |
|                                                                       |
-------------------------------------------------------------------------
| SU2 Project Website: https://su2code.github.io                        |
|                                                                       |
| The SU2 Project is maintained by the SU2 Foundation                   |
| (http://su2foundation.org)                                            |
-------------------------------------------------------------------------
| Copyright 2012-2023, SU2 Contributors                                 |
|                                                                       |
| SU2 is free software; you can redistribute it and/or                  |
| modify it under the terms of the GNU Lesser General Public            |
| License as published by the Free Software Foundation; either          |
| version 2.1 of the License, or (at your option) any later version.    |
|                                                                       |
| SU2 is distributed in the hope that it will be useful,                |
| but WITHOUT ANY WARRANTY; without even the implied warranty of        |
| MERCHANTABILITY or FITNESS FOR A PARTICULAR PURPOSE. See the GNU      |
| Lesser General Public License for more details.                       |
|                                                                       |
| You should have received a copy of the GNU Lesser General Public      |
| License along with SU2. If not, see <http://www.gnu.org/licenses/>.   |
-------------------------------------------------------------------------

Parsing config file for zone 0

----------------- Physical Case Definition ( Zone 0 ) -------------------
Compressible RANS equations.
Turbulence model: Spalart-Allmaras-noft2
Hybrid RANS/LES: No Hybrid RANS/LES
Mach number: 0.734.
Angle of attack (AoA): 2.31 deg, and angle of sideslip (AoS): 0 deg.
Reynolds number: 6.5e+06. Reference length 1.
Fixed CL mode, target value: 0.824.
Reading and writing binary SU2 native restart files.
Read flow solution from: solution_flow.dat.
Dimensional simulation.
The reference area is 1 m^2.
The semi-span will be computed using the max y(3D) value.
The reference length is 1 m.
Reference origin for moment evaluation is (0.25, 0, 0).
Surface(s) where the force coefficients are evaluated: AIRFOIL.

Surface(s) plotted in the output file: AIRFOIL.
Surface(s) affected by the design variables: AIRFOIL.
Input mesh file name: mesh_RAE2822_turb_deform.su2

--------------- Space Numerical Integration ( Zone 0 ) ------------------
Jameson-Schmidt-Turkel scheme (2nd order in space) for the flow inviscid terms.
JST viscous coefficients (2nd & 4th): 0.5, 0.02.
The method includes a grid stretching correction (p = 0.3).
Scalar upwind solver for the turbulence model.
First order integration in space.
Average of gradients with correction (viscous flow terms).
Average of gradients with correction (viscous turbulence terms).
Gradient for viscous and source terms: inverse-distance weighted Least-Squares.

--------------- Time Numerical Integration  ( Zone 0 ) ------------------
Local time stepping (steady state simulation).
Euler implicit method for the flow equations.
FGMRES is used for solving the linear system.
Using a ILU(0) preconditioning.
Convergence criteria of the linear solver: 1e-06.
Max number of linear iterations: 10.
No CFL adaptation.
Courant-Friedrichs-Lewy number:       10
Euler implicit time integration for the turbulence model.

------------------ Convergence Criteria  ( Zone 0 ) ---------------------
Maximum number of solver subiterations: 5500.
Begin convergence monitoring at iteration 10.
Residual minimum value: 1e-12.
Cauchy series min. value: 1e-06.
Number of Cauchy elements: 100.
Begin windowed time average at iteration 0.

-------------------- Output Information ( Zone 0 ) ----------------------
File writing frequency: 
+------------------------------------+
|                     File| Frequency|
+------------------------------------+
|                  RESTART|     10000|
|                 PARAVIEW|     10000|
|         SURFACE_PARAVIEW|     10000|
|              SURFACE_CSV|     10000|
+------------------------------------+
Writing the convergence history file every 1 inner iterations.
Writing the screen convergence history every 1 inner iterations.
The tabular file format is CSV (.csv).
Convergence history file name: history_direct.
Forces breakdown file name: forces_breakdown.dat.
Surface file name: surface_flow.
Volume file name: flow.
Restart file name: restart_flow.dat.

------------- Config File Boundary Information ( Zone 0 ) ---------------
+-----------------------------------------------------------------------+
|                        Marker Type|                        Marker Name|
+-----------------------------------------------------------------------+
|                          Far-field|                           FARFIELD|
+-----------------------------------------------------------------------+
|                     Heat flux wall|                            AIRFOIL|
+-----------------------------------------------------------------------+

-------------------- Output Preprocessing ( Zone 0 ) --------------------

WARNING: SURFACE_PRESSURE_DROP can only be computed for at least 2 surfaces (outlet, inlet, ...)

Screen output fields: INNER_ITER, RMS_DENSITY, RMS_NU_TILDE, LIFT, DRAG
History output group(s): ITER, RMS_RES, AERO_COEFF
Convergence field(s): RMS_DENSITY
Warning: No (valid) fields chosen for time convergence monitoring. Time convergence monitoring inactive.
Volume output fields: COORDINATES, SOLUTION, PRIMITIVE

------------------- Geometry Preprocessing ( Zone 0 ) -------------------
Two dimensional problem.
13937 grid points before partitioning.
22842 volume elements before partitioning.
2 surface markers.
192 boundary elements in index 0 (Marker = AIRFOIL).
40 boundary elements in index 1 (Marker = FARFIELD).
Executing the partitioning functions.
Building the graph adjacency structure.
Calling ParMETIS... graph partitioning complete (831 edge cuts).
Distributing ParMETIS coloring.
Rebalancing vertices.
Rebalancing volume element connectivity.
Rebalancing markers and surface elements.
14875 vertices including ghost points. 
23674 interior elements including halo cells. 
18780 triangles.
4894 quadrilaterals.
Establishing MPI communication patterns.
Setting point connectivity.
Renumbering points (Reverse Cuthill McKee Ordering).
Recomputing point connectivity.
Setting element connectivity.
Checking the numerical grid orientation.
All volume elements are correctly orientend.
All surface elements are correctly orientend.
Identifying edges and vertices.
Setting the control volume structure.
Area of the computational grid: 32209.9.
Searching for the closest normal neighbors to the surfaces.
Storing a mapping from global to local point index.
Compute the surface curvature.
Max K: 162.582. Mean K: 7.44727. Standard deviation K: 22.2131.
Checking for periodicity.
Computing mesh quality statistics for the dual control volumes.
+--------------------------------------------------------------+
|           Mesh Quality Metric|        Minimum|        Maximum|
+--------------------------------------------------------------+
|    Orthogonality Angle (deg.)|        75.2875|        89.9994|
|     CV Face Area Aspect Ratio|        1.00124|        3358.44|
|           CV Sub-Volume Ratio|        1.00065|        1212.86|
+--------------------------------------------------------------+
Finding max control volume width.
Communicating number of neighbors.
Wetted area = 2.02274 m.
Area projection in the x-plane = 0.124453 m, y-plane = 0.995873 m.
Max. coordinate in the x-direction = 1 m, y-direction = 0.0630752 m.
Min. coordinate in the x-direction = 0 m, y-direction = -0.0595861 m.
Computing wall distances.

-------------------- Solver Preprocessing ( Zone 0 ) --------------------
WARNING: AoA in the solution file (2.7848 deg.) +
         AoA offset in mesh file (0 deg.) = 2.7848 deg.
WARNING: SU2 will use the dCD/dCL provided in the direct solution file: 0.0197767.
WARNING: SU2 will use the dCMz/dCL provided in the direct solution file: 0.0109874.
Viscous flow: Computing pressure using the ideal gas law
based on the free-stream temperature and a density computed
from the Reynolds number.
Force coefficients computed using free-stream values.

-- Models:
+------------------------------------------------------------------------------+
|          Viscosity Model|        Conductivity Model|              Fluid Model|
+------------------------------------------------------------------------------+
|               SUTHERLAND|          CONSTANT_PRANDTL|             STANDARD_AIR|
+------------------------------------------------------------------------------+
-- Fluid properties:
+------------------------------------------------------------------------------+
|                  Name|    Dim. value|    Ref. value|      Unit|Non-dim. value|
+------------------------------------------------------------------------------+
|        Ref. Viscosity|     1.716e-05|             1|   N.s/m^2|     1.716e-05|
|      Sutherland Temp.|        273.15|             1|         K|        273.15|
|     Sutherland Const.|         110.4|             1|         K|         110.4|
+------------------------------------------------------------------------------+
|        Prandtl (Lam.)|             -|             -|         -|          0.71|
|       Prandtl (Turb.)|             -|             -|         -|           0.9|
+------------------------------------------------------------------------------+
|          Gas Constant|       287.058|             1|  N.m/kg.K|       287.058|
|      Spec. Heat Ratio|             -|             -|         -|           1.4|
+------------------------------------------------------------------------------+
-- Initial and free-stream conditions:
+------------------------------------------------------------------------------+
|                  Name|    Dim. value|    Ref. value|      Unit|Non-dim. value|
+------------------------------------------------------------------------------+
|       Static Pressure|         38515|             1|        Pa|         38515|
|               Density|      0.465631|             1|    kg/m^3|      0.465631|
|           Temperature|        288.15|             1|         K|        288.15|
|          Total Energy|        237984|             1|   m^2/s^2|        237984|
|            Velocity-X|       249.483|             1|       m/s|       249.483|
|            Velocity-Y|       12.1354|             1|       m/s|       12.1354|
|    Velocity Magnitude|       249.778|             1|       m/s|       249.778|
+------------------------------------------------------------------------------+
|             Viscosity|    1.7893e-05|             1|   N.s/m^2|    1.7893e-05|
|          Conductivity|             -|             1|   W/m^2.K|             -|
|     Turb. Kin. Energy|       233.959|             1|   m^2/s^2|       233.959|
|     Spec. Dissipation|        608834|             1|       1/s|        608834|
+------------------------------------------------------------------------------+
|           Mach Number|             -|             -|         -|         0.734|
|       Reynolds Number|             -|             -|         -|       6.5e+06|
+------------------------------------------------------------------------------+
Initialize Jacobian structure (Navier-Stokes). MG level: 0.
Initialize Jacobian structure (SA model).

------------------- Numerics Preprocessing ( Zone 0 ) -------------------

----------------- Integration Preprocessing ( Zone 0 ) ------------------

------------------- Iteration Preprocessing ( Zone 0 ) ------------------
Euler/Navier-Stokes/RANS fluid iteration.

------------------------------ Begin Solver -----------------------------

Simulation Run using the Single-zone Driver
WARNING: SU2 was not compiled for an AVX-capable architecture. Performance could be better,
         see https://su2code.github.io/docs_v7/Build-SU2-Linux-MacOS/#compiler-optimizations
+----------------------------------------------------------------+
|  Inner_Iter|    rms[Rho]|     rms[nu]|          CL|          CD|
+----------------------------------------------------------------+
|           0|   -4.957587|   -6.091934|    0.823937|    0.012066|
|           1|   -5.011052|   -6.176400|    0.823892|    0.012058|
|           2|   -5.064378|   -6.276456|    0.823868|    0.012056|
|           3|   -5.101598|   -6.390191|    0.823859|    0.012058|
|           4|   -5.128037|   -6.516537|    0.823860|    0.012060|
|           5|   -5.148240|   -6.646134|    0.823865|    0.012061|
|           6|   -5.163048|   -6.746566|    0.823869|    0.012060|
|           7|   -5.172543|   -6.778502|    0.823870|    0.012058|
|           8|   -5.176663|   -6.758732|    0.823868|    0.012054|
|           9|   -5.174823|   -6.731600|    0.823866|    0.012050|
|          10|   -5.166583|   -6.716489|    0.823863|    0.012045|
|          11|   -5.152779|   -6.713257|    0.823862|    0.012041|
|          12|   -5.135642|   -6.713849|    0.823862|    0.012036|
|          13|   -5.117840|   -6.708519|    0.823864|    0.012033|
|          14|   -5.101447|   -6.691386|    0.823869|    0.012030|
|          15|   -5.087525|   -6.663565|    0.823876|    0.012028|
|          16|   -5.076219|   -6.630840|    0.823884|    0.012026|
|          17|   -5.067109|   -6.599162|    0.823895|    0.012025|
|          18|   -5.059587|   -6.572390|    0.823906|    0.012024|
|          19|   -5.053150|   -6.552219|    0.823919|    0.012024|
|          20|   -5.047534|   -6.538794|    0.823931|    0.012024|
|          21|   -5.042676|   -6.531222|    0.823944|    0.012024|
|          22|   -5.038600|   -6.527938|    0.823955|    0.012024|
|          23|   -5.035291|   -6.527029|    0.823965|    0.012025|
|          24|   -5.032631|   -6.526635|    0.823972|    0.012026|
|          25|   -5.030409|   -6.525386|    0.823978|    0.012026|
|          26|   -5.028387|   -6.522738|    0.823982|    0.012027|
|          27|   -5.026364|   -6.519025|    0.823983|    0.012027|
|          28|   -5.024224|   -6.515205|    0.823983|    0.012027|
|          29|   -5.021944|   -6.512461|    0.823980|    0.012028|
|          30|   -5.019582|   -6.511847|    0.823977|    0.012028|
|          31|   -5.017248|   -6.514072|    0.823973|    0.012027|
|          32|   -5.015080|   -6.519415|    0.823968|    0.012027|
|          33|   -5.013223|   -6.527729|    0.823963|    0.012027|
|          34|   -5.011811|   -6.538412|    0.823959|    0.012026|
|          35|   -5.010951|   -6.550540|    0.823955|    0.012026|
|          36|   -5.010711|   -6.563137|    0.823952|    0.012025|
|          37|   -5.011109|   -6.575083|    0.823951|    0.012024|
|          38|   -5.012109|   -6.585368|    0.823950|    0.012023|
|          39|   -5.013636|   -6.593285|    0.823951|    0.012022|
|          40|   -5.015581|   -6.598550|    0.823953|    0.012021|
|          41|   -5.017829|   -6.601303|    0.823956|    0.012020|
|          42|   -5.020273|   -6.602010|    0.823961|    0.012019|
|          43|   -5.022828|   -6.601306|    0.823966|    0.012018|
|          44|   -5.025447|   -6.599859|    0.823973|    0.012018|
|          45|   -5.028111|   -6.598263|    0.823980|    0.012017|
|          46|   -5.030831|   -6.596999|    0.823988|    0.012016|
|          47|   -5.033638|   -6.596420|    0.823997|    0.012016|
|          48|   -5.036572|   -6.596757|    0.824006|    0.012016|
|          49|   -5.039677|   -6.598134|    0.824015|    0.012015|
|          50|   -5.042988|   -6.600576|    0.824024|    0.012016|
|          51|   -5.046529|   -6.604022|    0.824034|    0.012016|
|          52|   -5.050309|   -6.608333|    0.824043|    0.012017|
|          53|   -5.054321|   -6.613307|    0.824052|    0.012017|
|          54|   -5.058542|   -6.618698|    0.824061|    0.012018|
|          55|   -5.062938|   -6.624239|    0.824070|    0.012020|
|          56|   -5.067465|   -6.629672|    0.824078|    0.012021|
|          57|   -5.072070|   -6.634776|    0.824085|    0.012023|
|          58|   -5.076701|   -6.639389|    0.824093|    0.012024|
|          59|   -5.081307|   -6.643424|    0.824099|    0.012026|
|          60|   -5.085843|   -6.646871|    0.824105|    0.012028|
|          61|   -5.090272|   -6.649791|    0.824111|    0.012030|
|          62|   -5.094565|   -6.652294|    0.824116|    0.012032|
|          63|   -5.098703|   -6.654516|    0.824120|    0.012034|
|          64|   -5.102677|   -6.656599|    0.824124|    0.012036|
|          65|   -5.106488|   -6.658669|    0.824127|    0.012038|
|          66|   -5.110146|   -6.660822|    0.824130|    0.012041|
|          67|   -5.113665|   -6.663115|    0.824132|    0.012043|
|          68|   -5.117065|   -6.665567|    0.824134|    0.012045|
|          69|   -5.120370|   -6.668160|    0.824136|    0.012048|
|          70|   -5.123598|   -6.670852|    0.824137|    0.012050|
|          71|   -5.126764|   -6.673581|    0.824138|    0.012052|
|          72|   -5.129874|   -6.676286|    0.824139|    0.012055|
|          73|   -5.132921|   -6.678911|    0.824140|    0.012057|
|          74|   -5.135891|   -6.681416|    0.824141|    0.012059|
|          75|   -5.138757|   -6.683787|    0.824141|    0.012062|
|          76|   -5.141484|   -6.686029|    0.824141|    0.012064|
|          77|   -5.144032|   -6.688170|    0.824141|    0.012067|
|          78|   -5.146361|   -6.690252|    0.824141|    0.012069|
|          79|   -5.148432|   -6.692328|    0.824141|    0.012071|
|          80|   -5.150216|   -6.694450|    0.824140|    0.012074|
|          81|   -5.151690|   -6.696670|    0.824140|    0.012076|
|          82|   -5.152845|   -6.699034|    0.824139|    0.012078|
|          83|   -5.153683|   -6.701583|    0.824138|    0.012081|
|          84|   -5.154216|   -6.704350|    0.824138|    0.012083|
|          85|   -5.154464|   -6.707364|    0.824137|    0.012085|
|          86|   -5.154458|   -6.710653|    0.824136|    0.012087|
|          87|   -5.154231|   -6.714239|    0.824135|    0.012089|
|          88|   -5.153818|   -6.718144|    0.824134|    0.012091|
|          89|   -5.153257|   -6.722387|    0.824133|    0.012093|
|          90|   -5.152581|   -6.726986|    0.824133|    0.012095|
|          91|   -5.151822|   -6.731954|    0.824132|    0.012097|
|          92|   -5.151005|   -6.737302|    0.824132|    0.012099|
|          93|   -5.150149|   -6.743035|    0.824131|    0.012101|
|          94|   -5.149268|   -6.749156|    0.824131|    0.012103|
|          95|   -5.148369|   -6.755661|    0.824131|    0.012105|
|          96|   -5.147452|   -6.762541|    0.824131|    0.012107|
|          97|   -5.146516|   -6.769787|    0.824131|    0.012108|
|          98|   -5.145554|   -6.777385|    0.824131|    0.012110|
|          99|   -5.144560|   -6.785319|    0.824131|    0.012112|
|         100|   -5.143524|   -6.793571|    0.824130|    0.012114|
|         101|   -5.142438|   -6.802119|    0.824130|    0.012106|
+-----------------------------------------------------------------------+
|Fixed CL Mode                           |Value                         |
+-----------------------------------------------------------------------+
|Current CL                              |0.82413                       |
|Target CL                               |0.824                         |
|Previous AOA                            |2.7848                        |
|Changed AoA by                          |-0.00065196                   |
+-----------------------------------------------------------------------+
+----------------------------------------------------------------+
|  Inner_Iter|    rms[Rho]|     rms[nu]|          CL|          CD|
+----------------------------------------------------------------+
|         102|   -3.379127|   -6.801199|    0.824130|    0.012108|
|         103|   -3.763789|   -6.814966|    0.824129|    0.012109|
|         104|   -4.008669|   -6.825554|    0.824129|    0.012111|
|         105|   -4.087999|   -6.835685|    0.824128|    0.012112|
|         106|   -4.141677|   -6.845753|    0.824127|    0.012114|
|         107|   -4.211104|   -6.855817|    0.824125|    0.012115|
|         108|   -4.296650|   -6.865864|    0.824123|    0.012116|
|         109|   -4.385211|   -6.875869|    0.824121|    0.012117|
|         110|   -4.460032|   -6.885790|    0.824119|    0.012118|
|         111|   -4.513071|   -6.895578|    0.824117|    0.012119|
|         112|   -4.546710|   -6.905178|    0.824114|    0.012120|
|         113|   -4.565481|   -6.914552|    0.824111|    0.012121|
|         114|   -4.573544|   -6.923671|    0.824108|    0.012121|
|         115|   -4.576508|   -6.932510|    0.824104|    0.012122|
|         116|   -4.580440|   -6.941033|    0.824101|    0.012122|
|         117|   -4.589319|   -6.949203|    0.824097|    0.012122|
|         118|   -4.603974|   -6.956989|    0.824093|    0.012122|
|         119|   -4.622624|   -6.964371|    0.824089|    0.012122|
|         120|   -4.642303|   -6.971332|    0.824085|    0.012122|
|         121|   -4.660570|   -6.977861|    0.824082|    0.012122|
|         122|   -4.676659|   -6.983940|    0.824078|    0.012122|
|         123|   -4.691349|   -6.989542|    0.824074|    0.012122|
|         124|   -4.705899|   -6.994651|    0.824070|    0.012121|
|         125|   -4.721067|   -6.999253|    0.824067|    0.012121|
|         126|   -4.736795|   -7.003353|    0.824063|    0.012120|
|         127|   -4.752437|   -7.006971|    0.824060|    0.012120|
|         128|   -4.767145|   -7.010136|    0.824057|    0.012119|
|         129|   -4.780169|   -7.012889|    0.824054|    0.012119|
|         130|   -4.791010|   -7.015277|    0.824051|    0.012118|
|         131|   -4.799510|   -7.017353|    0.824049|    0.012117|
|         132|   -4.805907|   -7.019176|    0.824046|    0.012116|
|         133|   -4.810817|   -7.020796|    0.824044|    0.012116|
|         134|   -4.815095|   -7.022267|    0.824042|    0.012115|
|         135|   -4.819627|   -7.023638|    0.824040|    0.012114|
|         136|   -4.825127|   -7.024955|    0.824038|    0.012114|
|         137|   -4.832009|   -7.026255|    0.824036|    0.012113|
|         138|   -4.840342|   -7.027570|    0.824035|    0.012112|
|         139|   -4.849862|   -7.028930|    0.824033|    0.012111|
|         140|   -4.860027|   -7.030358|    0.824031|    0.012111|
|         141|   -4.870109|   -7.031871|    0.824029|    0.012110|
|         142|   -4.879349|   -7.033482|    0.824027|    0.012109|
|         143|   -4.887142|   -7.035198|    0.824025|    0.012109|
|         144|   -4.893204|   -7.037018|    0.824023|    0.012108|
|         145|   -4.897643|   -7.038938|    0.824021|    0.012107|
|         146|   -4.900906|   -7.040941|    0.824019|    0.012106|
|         147|   -4.903620|   -7.043017|    0.824016|    0.012106|
|         148|   -4.906401|   -7.045148|    0.824014|    0.012105|
|         149|   -4.909717|   -7.047320|    0.824011|    0.012104|
|         150|   -4.913805|   -7.049515|    0.824008|    0.012103|
|         151|   -4.918674|   -7.051715|    0.824005|    0.012102|
|         152|   -4.924141|   -7.053914|    0.824001|    0.012101|
|         153|   -4.929911|   -7.056101|    0.823998|    0.012100|
|         154|   -4.935653|   -7.058277|    0.823994|    0.012100|
|         155|   -4.941076|   -7.060420|    0.823990|    0.012099|
|         156|   -4.945987|   -7.062514|    0.823986|    0.012098|
|         157|   -4.950307|   -7.064541|    0.823982|    0.012097|
|         158|   -4.954062|   -7.066489|    0.823978|    0.012096|
|         159|   -4.957357|   -7.068352|    0.823973|    0.012095|
|         160|   -4.960328|   -7.070134|    0.823969|    0.012094|
|         161|   -4.963103|   -7.071838|    0.823964|    0.012093|
|         162|   -4.965785|   -7.073475|    0.823959|    0.012092|
|         163|   -4.968433|   -7.075059|    0.823954|    0.012091|
|         164|   -4.971070|   -7.076603|    0.823949|    0.012090|
|         165|   -4.973694|   -7.078124|    0.823945|    0.012089|
|         166|   -4.976287|   -7.079640|    0.823940|    0.012088|
|         167|   -4.978828|   -7.081163|    0.823935|    0.012087|
|         168|   -4.981305|   -7.082710|    0.823931|    0.012086|
|         169|   -4.983714|   -7.084291|    0.823926|    0.012085|
|         170|   -4.986061|   -7.085910|    0.823922|    0.012085|
|         171|   -4.988359|   -7.087576|    0.823918|    0.012084|
|         172|   -4.990625|   -7.089286|    0.823914|    0.012083|
|         173|   -4.992877|   -7.091037|    0.823910|    0.012083|
|         174|   -4.995131|   -7.092825|    0.823906|    0.012082|
|         175|   -4.997403|   -7.094637|    0.823903|    0.012082|
|         176|   -4.999708|   -7.096462|    0.823900|    0.012081|
|         177|   -5.002059|   -7.098284|    0.823897|    0.012081|
|         178|   -5.004469|   -7.100084|    0.823895|    0.012081|
|         179|   -5.006954|   -7.101850|    0.823893|    0.012080|
|         180|   -5.009525|   -7.103562|    0.823891|    0.012080|
|         181|   -5.012201|   -7.105195|    0.823890|    0.012080|
|         182|   -5.014998|   -7.106741|    0.823889|    0.012080|
|         183|   -5.017931|   -7.108193|    0.823888|    0.012080|
|         184|   -5.021016|   -7.109552|    0.823888|    0.012080|
|         185|   -5.024266|   -7.110817|    0.823888|    0.012081|
|         186|   -5.027693|   -7.111984|    0.823888|    0.012081|
|         187|   -5.031305|   -7.113056|    0.823889|    0.012081|
|         188|   -5.035110|   -7.114051|    0.823889|    0.012081|
|         189|   -5.039112|   -7.114985|    0.823891|    0.012082|
|         190|   -5.043308|   -7.115881|    0.823892|    0.012082|
|         191|   -5.047692|   -7.116756|    0.823894|    0.012083|
|         192|   -5.052255|   -7.117609|    0.823896|    0.012083|
|         193|   -5.056981|   -7.118419|    0.823898|    0.012084|
|         194|   -5.061847|   -7.119210|    0.823900|    0.012084|
|         195|   -5.066821|   -7.120019|    0.823903|    0.012085|
|         196|   -5.071866|   -7.120862|    0.823905|    0.012085|
|         197|   -5.076939|   -7.121762|    0.823908|    0.012086|
|         198|   -5.081990|   -7.122721|    0.823911|    0.012087|
|         199|   -5.086964|   -7.123754|    0.823914|    0.012087|
|         200|   -5.091801|   -7.124845|    0.823917|    0.012088|
|         201|   -5.096442|   -7.125991|    0.823921|    0.012095|
+-----------------------------------------------------------------------+
|Fixed CL Mode                           |Value                         |
+-----------------------------------------------------------------------+
|Current CL                              |0.823921                      |
|Target CL                               |0.824                         |
|Previous AOA                            |2.78415                       |
|Changed AoA by                          |0.000412671                   |
+-----------------------------------------------------------------------+
+----------------------------------------------------------------+
|  Inner_Iter|    rms[Rho]|     rms[nu]|          CL|          CD|
+----------------------------------------------------------------+
|         202|   -3.577614|   -7.110588|    0.823924|    0.012096|
|         203|   -3.961753|   -7.119941|    0.823927|    0.012096|
|         204|   -4.205239|   -7.123511|    0.823931|    0.012097|
|         205|   -4.283787|   -7.126007|    0.823934|    0.012098|
|         206|   -4.337065|   -7.128154|    0.823937|    0.012099|
|         207|   -4.405840|   -7.130107|    0.823941|    0.012100|
|         208|   -4.490058|   -7.131896|    0.823944|    0.012100|
|         209|   -4.576254|   -7.133519|    0.823947|    0.012101|
|         210|   -4.647670|   -7.134968|    0.823950|    0.012102|
|         211|   -4.696780|   -7.136232|    0.823953|    0.012103|
|         212|   -4.726620|   -7.137303|    0.823956|    0.012104|
|         213|   -4.742302|   -7.138172|    0.823959|    0.012105|
|         214|   -4.748317|   -7.138871|    0.823962|    0.012106|
|         215|   -4.750065|   -7.139428|    0.823964|    0.012106|
|         216|   -4.753014|   -7.139871|    0.823966|    0.012107|
|         217|   -4.760589|   -7.140213|    0.823969|    0.012108|
|         218|   -4.773323|   -7.140469|    0.823970|    0.012109|
|         219|   -4.789428|   -7.140665|    0.823972|    0.012110|
|         220|   -4.806157|   -7.140825|    0.823974|    0.012110|
|         221|   -4.821361|   -7.140965|    0.823975|    0.012111|
|         222|   -4.834445|   -7.141101|    0.823976|    0.012112|
|         223|   -4.846164|   -7.141258|    0.823976|    0.012113|
|         224|   -4.857663|   -7.141450|    0.823977|    0.012113|
|         225|   -4.869656|   -7.141687|    0.823977|    0.012114|
|         226|   -4.882197|   -7.141982|    0.823977|    0.012114|
|         227|   -4.894879|   -7.142351|    0.823977|    0.012115|
|         228|   -4.907152|   -7.142809|    0.823976|    0.012115|
|         229|   -4.918522|   -7.143368|    0.823975|    0.012116|
|         230|   -4.928645|   -7.144048|    0.823974|    0.012116|
|         231|   -4.937376|   -7.144862|    0.823973|    0.012117|
|         232|   -4.944810|   -7.145815|    0.823971|    0.012117|
|         233|   -4.951307|   -7.146909|    0.823970|    0.012117|
|         234|   -4.957423|   -7.148146|    0.823968|    0.012117|
|         235|   -4.963785|   -7.149523|    0.823966|    0.012118|
|         236|   -4.970937|   -7.151036|    0.823964|    0.012118|
|         237|   -4.979233|   -7.152677|    0.823962|    0.012118|
|         238|   -4.988777|   -7.154437|    0.823960|    0.012118|
|         239|   -4.999419|   -7.156306|    0.823958|    0.012118|
|         240|   -5.010776|   -7.158274|    0.823956|    0.012118|
|         241|   -5.022297|   -7.160323|    0.823954|    0.012118|
|         242|   -5.033375|   -7.162432|    0.823951|    0.012118|
|         243|   -5.043483|   -7.164579|    0.823949|    0.012118|
|         244|   -5.052315|   -7.166747|    0.823948|    0.012118|
|         245|   -5.059866|   -7.168919|    0.823946|    0.012117|
|         246|   -5.066417|   -7.171080|    0.823944|    0.012117|
|         247|   -5.072428|   -7.173219|    0.823943|    0.012117|
|         248|   -5.078396|   -7.175329|    0.823941|    0.012117|
|         249|   -5.084723|   -7.177404|    0.823940|    0.012117|
|         250|   -5.091644|   -7.179444|    0.823939|    0.012117|
|         251|   -5.099192|   -7.181449|    0.823939|    0.012116|
|         252|   -5.107236|   -7.183428|    0.823938|    0.012116|
|         253|   -5.115525|   -7.185392|    0.823938|    0.012116|
|         254|   -5.123766|   -7.187356|    0.823938|    0.012116|
|         255|   -5.131693|   -7.189336|    0.823938|    0.012115|
|         256|   -5.139118|   -7.191348|    0.823939|    0.012115|
|         257|   -5.145959|   -7.193410|    0.823940|    0.012115|
|         258|   -5.152236|   -7.195542|    0.823941|    0.012114|
|         259|   -5.158043|   -7.197764|    0.823943|    0.012114|
|         260|   -5.163516|   -7.200095|    0.823945|    0.012114|
|         261|   -5.168787|   -7.202552|    0.823947|    0.012114|
|         262|   -5.173966|   -7.205150|    0.823949|    0.012113|
|         263|   -5.179119|   -7.207897|    0.823951|    0.012113|
|         264|   -5.184274|   -7.210802|    0.823954|    0.012113|
|         265|   -5.189426|   -7.213865|    0.823956|    0.012113|
|         266|   -5.194546|   -7.217086|    0.823959|    0.012112|
|         267|   -5.199597|   -7.220456|    0.823962|    0.012112|
|         268|   -5.204538|   -7.223963|    0.823966|    0.012112|
|         269|   -5.209331|   -7.227590|    0.823969|    0.012112|
|         270|   -5.213942|   -7.231318|    0.823972|    0.012111|
|         271|   -5.218335|   -7.235121|    0.823975|    0.012111|
|         272|   -5.222477|   -7.238973|    0.823978|    0.012111|
|         273|   -5.226332|   -7.242846|    0.823982|    0.012111|
|         274|   -5.229862|   -7.246709|    0.823985|    0.012110|
|         275|   -5.233029|   -7.250534|    0.823988|    0.012110|
|         276|   -5.235799|   -7.254293|    0.823991|    0.012110|
|         277|   -5.238139|   -7.257963|    0.823993|    0.012109|
|         278|   -5.240027|   -7.261524|    0.823996|    0.012109|
|         279|   -5.241449|   -7.264960|    0.823998|    0.012109|
|         280|   -5.242402|   -7.268261|    0.824001|    0.012108|
|         281|   -5.242896|   -7.271427|    0.824003|    0.012108|
|         282|   -5.242951|   -7.274461|    0.824004|    0.012108|
|         283|   -5.242598|   -7.277373|    0.824006|    0.012107|
|         284|   -5.241875|   -7.280179|    0.824007|    0.012107|
|         285|   -5.240827|   -7.282903|    0.824009|    0.012107|
|         286|   -5.239504|   -7.285570|    0.824010|    0.012106|
|         287|   -5.237960|   -7.288211|    0.824010|    0.012106|
|         288|   -5.236247|   -7.290859|    0.824011|    0.012106|
|         289|   -5.234420|   -7.293548|    0.824011|    0.012105|
|         290|   -5.232531|   -7.296309|    0.824011|    0.012105|
|         291|   -5.230630|   -7.299173|    0.824011|    0.012105|
|         292|   -5.228764|   -7.302168|    0.824011|    0.012104|
|         293|   -5.226973|   -7.305319|    0.824011|    0.012104|
|         294|   -5.225296|   -7.308646|    0.824011|    0.012104|
|         295|   -5.223765|   -7.312165|    0.824010|    0.012104|
|         296|   -5.222408|   -7.315887|    0.824009|    0.012103|
|         297|   -5.221248|   -7.319817|    0.824009|    0.012103|
|         298|   -5.220304|   -7.323955|    0.824008|    0.012103|
|         299|   -5.219591|   -7.328298|    0.824007|    0.012103|
|         300|   -5.219119|   -7.332837|    0.824006|    0.012103|
|         301|   -5.218896|   -7.337559|    0.824005|    0.012102|
+-----------------------------------------------------------------------+
|Fixed CL Mode                           |Value                         |
+-----------------------------------------------------------------------+
|Current CL                              |0.824005                      |
|Target CL                               |0.824                         |
|Previous AOA                            |2.78456                       |
|Changed AoA by                          |-2.91508e-05                  |
+-----------------------------------------------------------------------+
+----------------------------------------------------------------+
|  Inner_Iter|    rms[Rho]|     rms[nu]|          CL|          CD|
+----------------------------------------------------------------+
|         302|   -4.707640|   -7.342263|    0.824004|    0.012102|
|         303|   -5.011674|   -7.347396|    0.824003|    0.012102|
|         304|   -5.131431|   -7.352573|    0.824002|    0.012102|
|         305|   -5.156387|   -7.357845|    0.824000|    0.012102|
|         306|   -5.170295|   -7.363199|    0.823999|    0.012102|
|         307|   -5.185114|   -7.368617|    0.823998|    0.012102|
|         308|   -5.199138|   -7.374075|    0.823997|    0.012102|
|         309|   -5.209895|   -7.379553|    0.823996|    0.012102|
|         310|   -5.216987|   -7.385034|    0.823995|    0.012102|
|         311|   -5.221571|   -7.390503|    0.823994|    0.012102|
|         312|   -5.224879|   -7.395949|    0.823993|    0.012102|
|         313|   -5.227633|   -7.401366|    0.823992|    0.012102|
|         314|   -5.230224|   -7.406750|    0.823991|    0.012103|
|         315|   -5.232949|   -7.412104|    0.823990|    0.012103|
|         316|   -5.236056|   -7.417446|    0.823989|    0.012103|
|         317|   -5.239671|   -7.422779|    0.823989|    0.012103|
|         318|   -5.243758|   -7.428092|    0.823988|    0.012104|
|         319|   -5.248165|   -7.433392|    0.823987|    0.012104|
|         320|   -5.252713|   -7.438690|    0.823987|    0.012104|
|         321|   -5.257284|   -7.443993|    0.823986|    0.012104|
|         322|   -5.261853|   -7.449313|    0.823986|    0.012105|
|         323|   -5.266461|   -7.454658|    0.823985|    0.012105|
|         324|   -5.271178|   -7.460038|    0.823985|    0.012106|
|         325|   -5.276062|   -7.465462|    0.823985|    0.012106|
|         326|   -5.281147|   -7.470938|    0.823984|    0.012106|
|         327|   -5.286441|   -7.476472|    0.823984|    0.012107|
|         328|   -5.291933|   -7.482070|    0.823984|    0.012107|
|         329|   -5.297594|   -7.487738|    0.823984|    0.012108|
|         330|   -5.303379|   -7.493478|    0.823984|    0.012108|
|         331|   -5.309233|   -7.499293|    0.823984|    0.012108|
|         332|   -5.315097|   -7.505186|    0.823984|    0.012109|
|         333|   -5.320916|   -7.511157|    0.823984|    0.012109|
|         334|   -5.326645|   -7.517209|    0.823985|    0.012110|
|         335|   -5.332245|   -7.523343|    0.823985|    0.012110|
|         336|   -5.337690|   -7.529558|    0.823985|    0.012111|
|         337|   -5.342951|   -7.535858|    0.823985|    0.012111|
|         338|   -5.348004|   -7.542244|    0.823985|    0.012111|
|         339|   -5.352817|   -7.548718|    0.823986|    0.012112|
|         340|   -5.357355|   -7.555281|    0.823986|    0.012112|
|         341|   -5.361577|   -7.561936|    0.823986|    0.012113|
|         342|   -5.365444|   -7.568683|    0.823986|    0.012113|
|         343|   -5.368919|   -7.575523|    0.823986|    0.012113|
|         344|   -5.371975|   -7.582454|    0.823987|    0.012114|
|         345|   -5.374594|   -7.589477|    0.823987|    0.012114|
|         346|   -5.376773|   -7.596588|    0.823987|    0.012114|
|         347|   -5.378519|   -7.603785|    0.823987|    0.012115|
|         348|   -5.379848|   -7.611064|    0.823987|    0.012115|
|         349|   -5.380782|   -7.618422|    0.823987|    0.012115|
|         350|   -5.381346|   -7.625852|    0.823987|    0.012115|
|         351|   -5.381569|   -7.633346|    0.823986|    0.012116|
|         352|   -5.381478|   -7.640894|    0.823986|    0.012116|
|         353|   -5.381105|   -7.648484|    0.823986|    0.012116|
|         354|   -5.380483|   -7.656103|    0.823985|    0.012116|
|         355|   -5.379647|   -7.663734|    0.823985|    0.012116|
|         356|   -5.378633|   -7.671358|    0.823985|    0.012116|
|         357|   -5.377479|   -7.678955|    0.823984|    0.012116|
|         358|   -5.376226|   -7.686501|    0.823983|    0.012117|
|         359|   -5.374913|   -7.693969|    0.823983|    0.012117|
|         360|   -5.373577|   -7.701328|    0.823982|    0.012117|
|         361|   -5.372256|   -7.708547|    0.823981|    0.012117|
|         362|   -5.370983|   -7.715591|    0.823981|    0.012117|
|         363|   -5.369793|   -7.722422|    0.823980|    0.012117|
|         364|   -5.368714|   -7.729003|    0.823979|    0.012116|
|         365|   -5.367775|   -7.735298|    0.823978|    0.012116|
|         366|   -5.367002|   -7.741272|    0.823977|    0.012116|
|         367|   -5.366421|   -7.746892|    0.823977|    0.012116|
|         368|   -5.366054|   -7.752134|    0.823976|    0.012116|
|         369|   -5.365923|   -7.756976|    0.823975|    0.012116|
|         370|   -5.366048|   -7.761410|    0.823974|    0.012116|
|         371|   -5.366449|   -7.765433|    0.823974|    0.012116|
|         372|   -5.367143|   -7.769055|    0.823973|    0.012116|
|         373|   -5.368146|   -7.772297|    0.823973|    0.012115|
|         374|   -5.369474|   -7.775189|    0.823972|    0.012115|
|         375|   -5.371141|   -7.777773|    0.823972|    0.012115|
|         376|   -5.373157|   -7.780098|    0.823971|    0.012115|
|         377|   -5.375535|   -7.782222|    0.823971|    0.012115|
|         378|   -5.378284|   -7.784201|    0.823971|    0.012115|
|         379|   -5.381410|   -7.786095|    0.823971|    0.012114|
|         380|   -5.384921|   -7.787971|    0.823971|    0.012114|
|         381|   -5.388819|   -7.789891|    0.823971|    0.012114|
|         382|   -5.393108|   -7.791916|    0.823971|    0.012114|
|         383|   -5.397785|   -7.794097|    0.823972|    0.012114|
|         384|   -5.402850|   -7.796481|    0.823972|    0.012114|
|         385|   -5.408295|   -7.799107|    0.823973|    0.012113|
|         386|   -5.414113|   -7.802005|    0.823973|    0.012113|
|         387|   -5.420292|   -7.805194|    0.823974|    0.012113|
|         388|   -5.426817|   -7.808686|    0.823975|    0.012113|
|         389|   -5.433670|   -7.812483|    0.823976|    0.012113|
|         390|   -5.440829|   -7.816577|    0.823977|    0.012113|
|         391|   -5.448267|   -7.820952|    0.823978|    0.012113|
|         392|   -5.455954|   -7.825584|    0.823979|    0.012113|
|         393|   -5.463854|   -7.830444|    0.823980|    0.012113|
|         394|   -5.471928|   -7.835495|    0.823981|    0.012112|
|         395|   -5.480133|   -7.840699|    0.823982|    0.012112|
|         396|   -5.488419|   -7.846013|    0.823984|    0.012112|
|         397|   -5.496733|   -7.851397|    0.823985|    0.012112|
|         398|   -5.505019|   -7.856808|    0.823986|    0.012112|
|         399|   -5.513217|   -7.862211|    0.823988|    0.012112|
|         400|   -5.521264|   -7.867572|    0.823989|    0.012112|
|         401|   -5.529097|   -7.872864|    0.823990|    0.012113|
+-----------------------------------------------------------------------+
|Fixed CL Mode                           |Value                         |
+-----------------------------------------------------------------------+
|Current CL                              |0.82399                       |
|Target CL                               |0.824                         |
|Previous AOA                            |2.78453                       |
|Changed AoA by                          |5.46378e-05                   |
+-----------------------------------------------------------------------+
+----------------------------------------------------------------+
|  Inner_Iter|    rms[Rho]|     rms[nu]|          CL|          CD|
+----------------------------------------------------------------+
|         402|   -4.454768|   -7.869435|    0.823992|    0.012113|
|         403|   -4.834301|   -7.879105|    0.823993|    0.012113|
|         404|   -5.066472|   -7.885388|    0.823995|    0.012113|
|         405|   -5.137282|   -7.890952|    0.823996|    0.012112|
|         406|   -5.183226|   -7.896213|    0.823998|    0.012112|
|         407|   -5.240487|   -7.901271|    0.823999|    0.012112|
|         408|   -5.306668|   -7.906163|    0.824000|    0.012112|
|         409|   -5.368817|   -7.910925|    0.824002|    0.012112|
|         410|   -5.415472|   -7.915589|    0.824003|    0.012112|
|         411|   -5.445047|   -7.920184|    0.824004|    0.012112|
|         412|   -5.462239|   -7.924742|    0.824006|    0.012112|
|         413|   -5.471285|   -7.929301|    0.824007|    0.012112|
|         414|   -5.475038|   -7.933901|    0.824008|    0.012112|
|         415|   -5.476323|   -7.938572|    0.824010|    0.012112|
|         416|   -5.477865|   -7.943329|    0.824011|    0.012112|
|         417|   -5.481328|   -7.948179|    0.824012|    0.012112|
|         418|   -5.486859|   -7.953120|    0.824013|    0.012112|
|         419|   -5.493458|   -7.958149|    0.824014|    0.012112|
|         420|   -5.499817|   -7.963259|    0.824016|    0.012112|
|         421|   -5.505095|   -7.968436|    0.824017|    0.012112|
|         422|   -5.509218|   -7.973660|    0.824018|    0.012112|
|         423|   -5.512631|   -7.978903|    0.824019|    0.012112|
|         424|   -5.515846|   -7.984133|    0.824020|    0.012112|
|         425|   -5.519137|   -7.989314|    0.824021|    0.012112|
|         426|   -5.522504|   -7.994407|    0.824022|    0.012111|
|         427|   -5.525790|   -7.999376|    0.824023|    0.012111|
|         428|   -5.528823|   -8.004186|    0.824023|    0.012111|
|         429|   -5.531485|   -8.008801|    0.824024|    0.012111|
|         430|   -5.533733|   -8.013193|    0.824025|    0.012111|
|         431|   -5.535601|   -8.017334|    0.824026|    0.012111|
|         432|   -5.537193|   -8.021204|    0.824027|    0.012111|
|         433|   -5.538676|   -8.024785|    0.824027|    0.012111|
|         434|   -5.540254|   -8.028064|    0.824028|    0.012111|
|         435|   -5.542127|   -8.031031|    0.824028|    0.012111|
|         436|   -5.544452|   -8.033678|    0.824029|    0.012111|
|         437|   -5.547319|   -8.036001|    0.824030|    0.012111|
|         438|   -5.550745|   -8.037995|    0.824030|    0.012111|
|         439|   -5.554676|   -8.039658|    0.824031|    0.012111|
|         440|   -5.559009|   -8.040988|    0.824031|    0.012111|
|         441|   -5.563614|   -8.041983|    0.824031|    0.012111|
|         442|   -5.568366|   -8.042642|    0.824032|    0.012111|
|         443|   -5.573171|   -8.042963|    0.824032|    0.012111|
|         444|   -5.577989|   -8.042947|    0.824032|    0.012111|
|         445|   -5.582837|   -8.042595|    0.824033|    0.012110|
|         446|   -5.587785|   -8.041905|    0.824033|    0.012110|
|         447|   -5.592928|   -8.040882|    0.824033|    0.012110|
|         448|   -5.598366|   -8.039528|    0.824033|    0.012110|
|         449|   -5.604175|   -8.037849|    0.824033|    0.012110|
|         450|   -5.610394|   -8.035854|    0.824033|    0.012110|
|         451|   -5.617021|   -8.033556|    0.824034|    0.012110|
|         452|   -5.624017|   -8.030972|    0.824034|    0.012110|
|         453|   -5.631321|   -8.028123|    0.824034|    0.012110|
|         454|   -5.638858|   -8.025037|    0.824034|    0.012110|
|         455|   -5.646558|   -8.021746|    0.824034|    0.012110|
|         456|   -5.654361|   -8.018289|    0.824034|    0.012110|
|         457|   -5.662223|   -8.014708|    0.824034|    0.012110|
|         458|   -5.670117|   -8.011049|    0.824034|    0.012110|
|         459|   -5.678027|   -8.007363|    0.824035|    0.012110|
|         460|   -5.685941|   -8.003701|    0.824035|    0.012110|
|         461|   -5.693848|   -8.000115|    0.824035|    0.012110|
|         462|   -5.701728|   -7.996677|    0.824035|    0.012110|
|         463|   -5.709556|   -7.993410|    0.824035|    0.012110|
|         464|   -5.717296|   -7.990364|    0.824035|    0.012109|
|         465|   -5.724905|   -7.987582|    0.824035|    0.012109|
|         466|   -5.732338|   -7.985107|    0.824036|    0.012109|
|         467|   -5.739545|   -7.982972|    0.824036|    0.012109|
|         468|   -5.746480|   -7.981207|    0.824036|    0.012109|
|         469|   -5.753096|   -7.979835|    0.824036|    0.012109|
|         470|   -5.759353|   -7.978869|    0.824036|    0.012109|
|         471|   -5.765214|   -7.978320|    0.824037|    0.012109|
|         472|   -5.770646|   -7.978186|    0.824037|    0.012109|
|         473|   -5.775622|   -7.978462|    0.824037|    0.012109|
|         474|   -5.780123|   -7.979132|    0.824037|    0.012109|
|         475|   -5.784132|   -7.980177|    0.824037|    0.012109|
|         476|   -5.787644|   -7.981566|    0.824037|    0.012109|
|         477|   -5.790659|   -7.983267|    0.824037|    0.012109|
|         478|   -5.793187|   -7.985243|    0.824037|    0.012109|
|         479|   -5.795246|   -7.987440|    0.824037|    0.012109|
|         480|   -5.796861|   -7.989808|    0.824037|    0.012109|
|         481|   -5.798064|   -7.992297|    0.824037|    0.012109|
|         482|   -5.798897|   -7.994854|    0.824037|    0.012109|
|         483|   -5.799402|   -7.997427|    0.824037|    0.012109|
|         484|   -5.799628|   -7.999965|    0.824037|    0.012109|
|         485|   -5.799627|   -8.002420|    0.824037|    0.012109|
|         486|   -5.799452|   -8.004748|    0.824037|    0.012109|
|         487|   -5.799156|   -8.006911|    0.824037|    0.012109|
|         488|   -5.798793|   -8.008875|    0.824037|    0.012109|
|         489|   -5.798416|   -8.010614|    0.824036|    0.012109|
|         490|   -5.798076|   -8.012111|    0.824036|    0.012109|
|         491|   -5.797822|   -8.013355|    0.824036|    0.012109|
|         492|   -5.797699|   -8.014341|    0.824036|    0.012109|
|         493|   -5.797752|   -8.015073|    0.824035|    0.012109|
|         494|   -5.798019|   -8.015561|    0.824035|    0.012109|
|         495|   -5.798538|   -8.015818|    0.824035|    0.012109|
|         496|   -5.799339|   -8.015865|    0.824034|    0.012109|
|         497|   -5.800453|   -8.015724|    0.824034|    0.012109|
|         498|   -5.801902|   -8.015419|    0.824034|    0.012109|
|         499|   -5.803707|   -8.014979|    0.824033|    0.012109|
|         500|   -5.805884|   -8.014428|    0.824033|    0.012109|
|         501|   -5.808443|   -8.013794|    0.824032|    0.012107|
+-----------------------------------------------------------------------+
|Fixed CL Mode                           |Value                         |
+-----------------------------------------------------------------------+
|Current CL                              |0.824032                      |
|Target CL                               |0.824                         |
|Previous AOA                            |2.78459                       |
|Changed AoA by                          |-0.000164029                  |
+-----------------------------------------------------------------------+
+----------------------------------------------------------------+
|  Inner_Iter|    rms[Rho]|     rms[nu]|          CL|          CD|
+----------------------------------------------------------------+
|         502|   -3.978357|   -7.892122|    0.824032|    0.012107|
|         503|   -4.362274|   -7.944628|    0.824032|    0.012107|
|         504|   -4.605093|   -7.962095|    0.824031|    0.012107|
|         505|   -4.683511|   -7.971661|    0.824031|    0.012107|
|         506|   -4.737142|   -7.978285|    0.824031|    0.012107|
|         507|   -4.806732|   -7.983258|    0.824030|    0.012107|
|         508|   -4.892741|   -7.987081|    0.824030|    0.012108|
|         509|   -4.982575|   -7.990088|    0.824030|    0.012108|
|         510|   -5.059964|   -7.992494|    0.824029|    0.012108|
|         511|   -5.116639|   -7.994382|    0.824029|    0.012108|
|         512|   -5.154138|   -7.995824|    0.824029|    0.012108|
|         513|   -5.176170|   -7.996987|    0.824029|    0.012108|
|         514|   -5.186450|   -7.998087|    0.824028|    0.012109|
|         515|   -5.190712|   -7.999276|    0.824028|    0.012109|
|         516|   -5.195516|   -8.000598|    0.824028|    0.012109|
|         517|   -5.205309|   -8.002028|    0.824028|    0.012109|
|         518|   -5.221170|   -8.003557|    0.824028|    0.012109|
|         519|   -5.241350|   -8.005210|    0.824028|    0.012110|
|         520|   -5.262751|   -8.007044|    0.824028|    0.012110|
|         521|   -5.282746|   -8.009101|    0.824028|    0.012110|
|         522|   -5.300461|   -8.011388|    0.824027|    0.012110|
|         523|   -5.316708|   -8.013879|    0.824027|    0.012110|
|         524|   -5.332841|   -8.016520|    0.824027|    0.012111|
|         525|   -5.349679|   -8.019253|    0.824027|    0.012111|
|         526|   -5.367144|   -8.022027|    0.824027|    0.012111|
|         527|   -5.384502|   -8.024804|    0.824028|    0.012111|
|         528|   -5.400793|   -8.027555|    0.824028|    0.012111|
|         529|   -5.415168|   -8.030256|    0.824028|    0.012111|
|         530|   -5.427065|   -8.032885|    0.824028|    0.012112|
|         531|   -5.436314|   -8.035422|    0.824028|    0.012112|
|         532|   -5.443195|   -8.037844|    0.824028|    0.012112|
|         533|   -5.448418|   -8.040132|    0.824028|    0.012112|
|         534|   -5.452971|   -8.042257|    0.824028|    0.012112|
|         535|   -5.457872|   -8.044191|    0.824028|    0.012112|
|         536|   -5.463951|   -8.045904|    0.824028|    0.012112|
|         537|   -5.471702|   -8.047362|    0.824028|    0.012113|
|         538|   -5.481237|   -8.048538|    0.824028|    0.012113|
|         539|   -5.492291|   -8.049411|    0.824028|    0.012113|
|         540|   -5.504276|   -8.049968|    0.824028|    0.012113|
|         541|   -5.516369|   -8.050207|    0.824028|    0.012113|
|         542|   -5.527682|   -8.050137|    0.824028|    0.012113|
|         543|   -5.537479|   -8.049778|    0.824028|    0.012113|
|         544|   -5.545389|   -8.049158|    0.824028|    0.012113|
|         545|   -5.551519|   -8.048313|    0.824028|    0.012113|
|         546|   -5.556406|   -8.047287|    0.824028|    0.012113|
|         547|   -5.560824|   -8.046130|    0.824028|    0.012113|
|         548|   -5.565557|   -8.044888|    0.824027|    0.012113|
|         549|   -5.571215|   -8.043611|    0.824027|    0.012113|
|         550|   -5.578139|   -8.042350|    0.824027|    0.012113|
|         551|   -5.586382|   -8.041156|    0.824026|    0.012113|
|         552|   -5.595753|   -8.040080|    0.824026|    0.012113|
|         553|   -5.605898|   -8.039176|    0.824025|    0.012113|
|         554|   -5.616392|   -8.038493|    0.824025|    0.012112|
|         555|   -5.626837|   -8.038079|    0.824024|    0.012112|
|         556|   -5.636940|   -8.037991|    0.824024|    0.012112|
|         557|   -5.646555|   -8.038283|    0.824023|    0.012112|
|         558|   -5.655689|   -8.039012|    0.824022|    0.012112|
|         559|   -5.664468|   -8.040235|    0.824021|    0.012112|
|         560|   -5.673080|   -8.042003|    0.824020|    0.012111|
|         561|   -5.681718|   -8.044366|    0.824019|    0.012111|
|         562|   -5.690543|   -8.047370|    0.824018|    0.012111|
|         563|   -5.699657|   -8.051051|    0.824017|    0.012111|
|         564|   -5.709098|   -8.055441|    0.824016|    0.012110|
|         565|   -5.718855|   -8.060559|    0.824015|    0.012110|
|         566|   -5.728880|   -8.066412|    0.824014|    0.012110|
|         567|   -5.739112|   -8.072992|    0.824013|    0.012109|
|         568|   -5.749485|   -8.080271|    0.824011|    0.012109|
|         569|   -5.759940|   -8.088197|    0.824010|    0.012109|
|         570|   -5.770425|   -8.096692|    0.824009|    0.012109|
|         571|   -5.780894|   -8.105649|    0.824008|    0.012108|
|         572|   -5.791296|   -8.114923|    0.824007|    0.012108|
|         573|   -5.801576|   -8.124334|    0.824006|    0.012108|
|         574|   -5.811669|   -8.133665|    0.824005|    0.012107|
|         575|   -5.821497|   -8.142697|    0.824004|    0.012107|
|         576|   -5.830973|   -8.151177|    0.824003|    0.012107|
|         577|   -5.840007|   -8.158754|    0.824003|    0.012107|
|         578|   -5.848509|   -8.165156|    0.824002|    0.012106|
|         579|   -5.856395|   -8.170128|    0.824002|    0.012106|
|         580|   -5.863594|   -8.173471|    0.824001|    0.012106|
|         581|   -5.870054|   -8.175081|    0.824001|    0.012105|
|         582|   -5.875739|   -8.174936|    0.824001|    0.012105|
|         583|   -5.880638|   -8.173118|    0.824001|    0.012105|
|         584|   -5.884759|   -8.169783|    0.824001|    0.012105|
|         585|   -5.888134|   -8.165162|    0.824001|    0.012105|
|         586|   -5.890811|   -8.159547|    0.824001|    0.012104|
|         587|   -5.892855|   -8.153252|    0.824001|    0.012104|
|         588|   -5.894346|   -8.146594|    0.824002|    0.012104|
|         589|   -5.895369|   -8.139870|    0.824002|    0.012104|
|         590|   -5.896016|   -8.133350|    0.824003|    0.012104|
|         591|   -5.896382|   -8.127267|    0.824004|    0.012103|
|         592|   -5.896557|   -8.121815|    0.824005|    0.012103|
|         593|   -5.896629|   -8.117150|    0.824005|    0.012103|
|         594|   -5.896677|   -8.113392|    0.824006|    0.012103|
|         595|   -5.896776|   -8.110629|    0.824007|    0.012103|
|         596|   -5.896987|   -8.108920|    0.824008|    0.012103|
|         597|   -5.897365|   -8.108295|    0.824010|    0.012103|
|         598|   -5.897956|   -8.108765|    0.824011|    0.012103|
|         599|   -5.898797|   -8.110318|    0.824012|    0.012103|
|         600|   -5.899917|   -8.112921|    0.824013|    0.012103|
|         601|   -5.901339|   -8.116522|    0.824014|    0.012102|
+-----------------------------------------------------------------------+
|Fixed CL Mode                           |Value                         |
+-----------------------------------------------------------------------+
|Current CL                              |0.824014                      |
|Target CL                               |0.824                         |
|Previous AOA                            |2.78442                       |
|Changed AoA by                          |-6.60204e-05                  |
+-----------------------------------------------------------------------+
+----------------------------------------------------------------+
|  Inner_Iter|    rms[Rho]|     rms[nu]|          CL|          CD|
+----------------------------------------------------------------+
|         602|   -4.373416|   -8.080733|    0.824016|    0.012102|
|         603|   -4.755601|   -8.104878|    0.824017|    0.012102|
|         604|   -4.993361|   -8.116851|    0.824018|    0.012102|
|         605|   -5.068806|   -8.126799|    0.824020|    0.012102|
|         606|   -5.120906|   -8.136233|    0.824021|    0.012102|
|         607|   -5.188490|   -8.145424|    0.824022|    0.012102|
|         608|   -5.271377|   -8.154393|    0.824023|    0.012102|
|         609|   -5.357249|   -8.163100|    0.824025|    0.012102|
|         610|   -5.431193|   -8.171464|    0.824026|    0.012102|
|         611|   -5.486287|   -8.179347|    0.824027|    0.012102|
|         612|   -5.524188|   -8.186607|    0.824028|    0.012102|
|         613|   -5.547945|   -8.193154|    0.824029|    0.012102|
|         614|   -5.560412|   -8.198934|    0.824030|    0.012102|
|         615|   -5.566472|   -8.203911|    0.824031|    0.012102|
|         616|   -5.572156|   -8.208036|    0.824032|    0.012103|
|         617|   -5.581811|   -8.211270|    0.824033|    0.012103|
|         618|   -5.596719|   -8.213618|    0.824034|    0.012103|
|         619|   -5.615545|   -8.215132|    0.824034|    0.012103|
|         620|   -5.635739|   -8.215904|    0.824035|    0.012103|
|         621|   -5.655180|   -8.216040|    0.824036|    0.012103|
|         622|   -5.673233|   -8.215647|    0.824036|    0.012103|
|         623|   -5.690604|   -8.214817|    0.824037|    0.012104|
|         624|   -5.708339|   -8.213638|    0.824037|    0.012104|
|         625|   -5.726912|   -8.212197|    0.824038|    0.012104|
|         626|   -5.745931|   -8.210579|    0.824038|    0.012104|
|         627|   -5.764396|   -8.208872|    0.824038|    0.012104|
|         628|   -5.781148|   -8.207149|    0.824038|    0.012105|
|         629|   -5.795257|   -8.205493|    0.824038|    0.012105|
|         630|   -5.806237|   -8.203965|    0.824038|    0.012105|
|         631|   -5.814116|   -8.202616|    0.824038|    0.012105|
|         632|   -5.819424|   -8.201480|    0.824038|    0.012105|
|         633|   -5.823069|   -8.200578|    0.824038|    0.012105|
|         634|   -5.826118|   -8.199919|    0.824038|    0.012106|
|         635|   -5.829552|   -8.199496|    0.824037|    0.012106|
|         636|   -5.834069|   -8.199297|    0.824037|    0.012106|
|         637|   -5.839994|   -8.199302|    0.824037|    0.012106|
|         638|   -5.847266|   -8.199486|    0.824036|    0.012106|
|         639|   -5.855488|   -8.199825|    0.824036|    0.012107|
|         640|   -5.864010|   -8.200297|    0.824035|    0.012107|
|         641|   -5.872054|   -8.200883|    0.824035|    0.012107|
|         642|   -5.878889|   -8.201560|    0.824034|    0.012107|
|         643|   -5.884017|   -8.202324|    0.824033|    0.012107|
|         644|   -5.887319|   -8.203172|    0.824033|    0.012107|
|         645|   -5.889081|   -8.204104|    0.824032|    0.012108|
|         646|   -5.889890|   -8.205122|    0.824031|    0.012108|
|         647|   -5.890457|   -8.206229|    0.824031|    0.012108|
|         648|   -5.891431|   -8.207428|    0.824030|    0.012108|
|         649|   -5.893277|   -8.208720|    0.824029|    0.012108|
|         650|   -5.896226|   -8.210109|    0.824028|    0.012108|
|         651|   -5.900288|   -8.211591|    0.824028|    0.012108|
|         652|   -5.905303|   -8.213165|    0.824027|    0.012108|
|         653|   -5.911014|   -8.214822|    0.824026|    0.012109|
|         654|   -5.917143|   -8.216551|    0.824025|    0.012109|
|         655|   -5.923455|   -8.218336|    0.824024|    0.012109|
|         656|   -5.929802|   -8.220157|    0.824023|    0.012109|
|         657|   -5.936140|   -8.221992|    0.824023|    0.012109|
|         658|   -5.942517|   -8.223816|    0.824022|    0.012109|
|         659|   -5.949046|   -8.225602|    0.824021|    0.012109|
|         660|   -5.955869|   -8.227322|    0.824020|    0.012109|
|         661|   -5.963120|   -8.228950|    0.824019|    0.012109|
|         662|   -5.970906|   -8.230461|    0.824018|    0.012109|
|         663|   -5.979293|   -8.231836|    0.824017|    0.012109|
|         664|   -5.988309|   -8.233063|    0.824016|    0.012109|
|         665|   -5.997951|   -8.234137|    0.824016|    0.012109|
|         666|   -6.008192|   -8.235064|    0.824015|    0.012109|
|         667|   -6.018997|   -8.235858|    0.824014|    0.012109|
|         668|   -6.030329|   -8.236545|    0.824013|    0.012109|
|         669|   -6.042148|   -8.237160|    0.824012|    0.012109|
|         670|   -6.054419|   -8.237752|    0.824011|    0.012109|
|         671|   -6.067104|   -8.238370|    0.824010|    0.012109|
|         672|   -6.080157|   -8.239070|    0.824010|    0.012109|
|         673|   -6.093524|   -8.239910|    0.824009|    0.012109|
|         674|   -6.107133|   -8.240949|    0.824008|    0.012109|
|         675|   -6.120894|   -8.242240|    0.824007|    0.012109|
|         676|   -6.134699|   -8.243834|    0.824007|    0.012109|
|         677|   -6.148423|   -8.245772|    0.824006|    0.012109|
|         678|   -6.161924|   -8.248087|    0.824005|    0.012109|
|         679|   -6.175051|   -8.250801|    0.824005|    0.012109|
|         680|   -6.187647|   -8.253925|    0.824004|    0.012109|
|         681|   -6.199555|   -8.257453|    0.824003|    0.012109|
|         682|   -6.210627|   -8.261366|    0.824003|    0.012109|
|         683|   -6.220731|   -8.265630|    0.824002|    0.012109|
|         684|   -6.229761|   -8.270202|    0.824002|    0.012109|
|         685|   -6.237640|   -8.275023|    0.824002|    0.012108|
|         686|   -6.244326|   -8.280028|    0.824001|    0.012108|
|         687|   -6.249817|   -8.285147|    0.824001|    0.012108|
|         688|   -6.254149|   -8.290303|    0.824001|    0.012108|
|         689|   -6.257391|   -8.295424|    0.824001|    0.012108|
|         690|   -6.259644|   -8.300440|    0.824000|    0.012108|
|         691|   -6.261027|   -8.305290|    0.824000|    0.012108|
|         692|   -6.261675|   -8.309927|    0.824000|    0.012108|
|         693|   -6.261727|   -8.314317|    0.824000|    0.012107|
|         694|   -6.261322|   -8.318447|    0.824000|    0.012107|
|         695|   -6.260594|   -8.322318|    0.824000|    0.012107|
|         696|   -6.259665|   -8.325954|    0.824000|    0.012107|
|         697|   -6.258644|   -8.329391|    0.824000|    0.012107|
|         698|   -6.257629|   -8.332678|    0.824001|    0.012107|
|         699|   -6.256701|   -8.335872|    0.824001|    0.012107|
|         700|   -6.255931|   -8.339033|    0.824001|    0.012107|
|         701|   -6.255373|   -8.342219|    0.824001|    0.012106|
+-----------------------------------------------------------------------+
|Fixed CL Mode                           |Value                         |
+-----------------------------------------------------------------------+
|Current CL                              |0.824001                      |
|Target CL                               |0.824                         |
|Previous AOA                            |2.78436                       |
|Changed AoA by                          |-5.40821e-06                  |
+-----------------------------------------------------------------------+
+----------------------------------------------------------------+
|  Inner_Iter|    rms[Rho]|     rms[nu]|          CL|          CD|
+----------------------------------------------------------------+
|         702|   -5.453987|   -8.344404|    0.824002|    0.012106|
|         703|   -5.797202|   -8.348228|    0.824002|    0.012106|
|         704|   -5.955604|   -8.351911|    0.824002|    0.012106|
|         705|   -5.995414|   -8.355685|    0.824003|    0.012106|
|         706|   -6.027691|   -8.359567|    0.824003|    0.012106|
|         707|   -6.068831|   -8.363532|    0.824004|    0.012106|
|         708|   -6.114300|   -8.367533|    0.824004|    0.012106|
|         709|   -6.156632|   -8.371503|    0.824004|    0.012106|
|         710|   -6.191293|   -8.375355|    0.824005|    0.012106|
|         711|   -6.218137|   -8.378988|    0.824005|    0.012106|
|         712|   -6.238735|   -8.382289|    0.824006|    0.012105|
|         713|   -6.254154|   -8.385145|    0.824006|    0.012105|
|         714|   -6.265047|   -8.387449|    0.824007|    0.012105|
|         715|   -6.272424|   -8.389110|    0.824007|    0.012105|
|         716|   -6.277715|   -8.390059|    0.824007|    0.012105|
|         717|   -6.282261|   -8.390256|    0.824008|    0.012105|
|         718|   -6.286876|   -8.389695|    0.824008|    0.012105|
|         719|   -6.291819|   -8.388404|    0.824009|    0.012105|
|         720|   -6.297035|   -8.386443|    0.824009|    0.012105|
|         721|   -6.302416|   -8.383899|    0.824009|    0.012105|
|         722|   -6.307901|   -8.380880|    0.824010|    0.012105|
|         723|   -6.313436|   -8.377507|    0.824010|    0.012105|
|         724|   -6.318885|   -8.373909|    0.824010|    0.012105|
|         725|   -6.324002|   -8.370212|    0.824011|    0.012105|
|         726|   -6.328492|   -8.366540|    0.824011|    0.012106|
|         727|   -6.332113|   -8.363005|    0.824011|    0.012106|
|         728|   -6.334742|   -8.359707|    0.824012|    0.012106|
|         729|   -6.336400|   -8.356731|    0.824012|    0.012106|
|         730|   -6.337209|   -8.354145|    0.824012|    0.012106|
|         731|   -6.337344|   -8.352002|    0.824012|    0.012106|
|         732|   -6.336985|   -8.350336|    0.824012|    0.012106|
|         733|   -6.336277|   -8.349167|    0.824012|    0.012106|
|         734|   -6.335317|   -8.348501|    0.824012|    0.012106|
|         735|   -6.334147|   -8.348328|    0.824013|    0.012106|
|         736|   -6.332755|   -8.348627|    0.824013|    0.012106|
|         737|   -6.331096|   -8.349366|    0.824013|    0.012106|
|         738|   -6.329105|   -8.350504|    0.824013|    0.012106|
|         739|   -6.326724|   -8.351992|    0.824013|    0.012106|
|         740|   -6.323910|   -8.353775|    0.824013|    0.012107|
|         741|   -6.320646|   -8.355795|    0.824013|    0.012107|
|         742|   -6.316948|   -8.357991|    0.824013|    0.012107|
|         743|   -6.312858|   -8.360304|    0.824013|    0.012107|
|         744|   -6.308439|   -8.362676|    0.824013|    0.012107|
|         745|   -6.303771|   -8.365054|    0.824013|    0.012107|
|         746|   -6.298932|   -8.367392|    0.824013|    0.012107|
|         747|   -6.293996|   -8.369649|    0.824013|    0.012107|
|         748|   -6.289025|   -8.371795|    0.824013|    0.012107|
|         749|   -6.284063|   -8.373805|    0.824013|    0.012107|
|         750|   -6.279138|   -8.375664|    0.824013|    0.012107|
|         751|   -6.274270|   -8.377368|    0.824013|    0.012108|
|         752|   -6.269467|   -8.378919|    0.824013|    0.012108|
|         753|   -6.264739|   -8.380327|    0.824013|    0.012108|
|         754|   -6.260093|   -8.381607|    0.824013|    0.012108|
|         755|   -6.255541|   -8.382778|    0.824013|    0.012108|
|         756|   -6.251097|   -8.383862|    0.824013|    0.012108|
|         757|   -6.246778|   -8.384881|    0.824013|    0.012108|
|         758|   -6.242602|   -8.385858|    0.824013|    0.012108|
|         759|   -6.238588|   -8.386816|    0.824013|    0.012108|
|         760|   -6.234753|   -8.387774|    0.824013|    0.012108|
|         761|   -6.231112|   -8.388750|    0.824013|    0.012109|
|         762|   -6.227677|   -8.389761|    0.824013|    0.012109|
|         763|   -6.224459|   -8.390820|    0.824013|    0.012109|
|         764|   -6.221467|   -8.391938|    0.824013|    0.012109|
|         765|   -6.218708|   -8.393126|    0.824013|    0.012109|
|         766|   -6.216190|   -8.394391|    0.824013|    0.012109|
|         767|   -6.213918|   -8.395741|    0.824013|    0.012109|
|         768|   -6.211898|   -8.397180|    0.824013|    0.012109|
|         769|   -6.210136|   -8.398715|    0.824013|    0.012109|
|         770|   -6.208635|   -8.400347|    0.824013|    0.012109|
|         771|   -6.207399|   -8.402082|    0.824013|    0.012109|
|         772|   -6.206431|   -8.403920|    0.824013|    0.012109|
|         773|   -6.205733|   -8.405863|    0.824013|    0.012109|
|         774|   -6.205304|   -8.407910|    0.824013|    0.012109|
|         775|   -6.205146|   -8.410058|    0.824013|    0.012109|
|         776|   -6.205255|   -8.412302|    0.824013|    0.012109|
|         777|   -6.205628|   -8.414630|    0.824013|    0.012109|
|         778|   -6.206261|   -8.417037|    0.824013|    0.012109|
|         779|   -6.207148|   -8.419514|    0.824013|    0.012109|
|         780|   -6.208283|   -8.422046|    0.824013|    0.012109|
|         781|   -6.209657|   -8.424616|    0.824013|    0.012109|
|         782|   -6.211261|   -8.427202|    0.824013|    0.012109|
|         783|   -6.213084|   -8.429782|    0.824013|    0.012109|
|         784|   -6.215114|   -8.432328|    0.824013|    0.012109|
|         785|   -6.217338|   -8.434816|    0.824013|    0.012109|
|         786|   -6.219740|   -8.437220|    0.824013|    0.012109|
|         787|   -6.222305|   -8.439515|    0.824013|    0.012109|
|         788|   -6.225013|   -8.441680|    0.824013|    0.012109|
|         789|   -6.227847|   -8.443700|    0.824013|    0.012109|
|         790|   -6.230784|   -8.445564|    0.824013|    0.012109|
|         791|   -6.233804|   -8.447266|    0.824013|    0.012109|
|         792|   -6.236883|   -8.448809|    0.824013|    0.012109|
|         793|   -6.239996|   -8.450204|    0.824013|    0.012109|
|         794|   -6.243119|   -8.451468|    0.824013|    0.012109|
|         795|   -6.246225|   -8.452623|    0.824013|    0.012109|
|         796|   -6.249288|   -8.453702|    0.824013|    0.012109|
|         797|   -6.252284|   -8.454737|    0.824013|    0.012109|
|         798|   -6.255185|   -8.455769|    0.824013|    0.012109|
|         799|   -6.257967|   -8.456838|    0.824013|    0.012109|
|         800|   -6.260607|   -8.457987|    0.824013|    0.012109|
|         801|   -6.263084|   -8.459258|    0.824013|    0.012108|
+-----------------------------------------------------------------------+
|Fixed CL Mode                           |Value                         |
+-----------------------------------------------------------------------+
|Current CL                              |0.824013                      |
|Target CL                               |0.824                         |
|Previous AOA                            |2.78435                       |
|Changed AoA by                          |-6.60122e-05                  |
+-----------------------------------------------------------------------+
+----------------------------------------------------------------+
|  Inner_Iter|    rms[Rho]|     rms[nu]|          CL|          CD|
+----------------------------------------------------------------+
|         802|   -4.373740|   -8.315713|    0.824013|    0.012108|
|         803|   -4.758010|   -8.378158|    0.824013|    0.012108|
|         804|   -5.001164|   -8.401075|    0.824014|    0.012107|
|         805|   -5.079237|   -8.415188|    0.824014|    0.012107|
|         806|   -5.132503|   -8.426262|    0.824014|    0.012107|
|         807|   -5.201878|   -8.435731|    0.824014|    0.012107|
|         808|   -5.287823|   -8.444090|    0.824014|    0.012107|
|         809|   -5.377790|   -8.451650|    0.824014|    0.012107|
|         810|   -5.455554|   -8.458607|    0.824014|    0.012107|
|         811|   -5.512771|   -8.465004|    0.824014|    0.012107|
|         812|   -5.550801|   -8.470889|    0.824015|    0.012107|
|         813|   -5.573182|   -8.476471|    0.824015|    0.012107|
|         814|   -5.583547|   -8.482040|    0.824015|    0.012107|
|         815|   -5.587669|   -8.487822|    0.824015|    0.012107|
|         816|   -5.592204|   -8.493888|    0.824015|    0.012107|
|         817|   -5.601676|   -8.500198|    0.824015|    0.012107|
|         818|   -5.617197|   -8.506718|    0.824015|    0.012106|
|         819|   -5.637036|   -8.513477|    0.824015|    0.012106|
|         820|   -5.658114|   -8.520537|    0.824016|    0.012106|
|         821|   -5.677831|   -8.527947|    0.824016|    0.012106|
|         822|   -5.695337|   -8.535703|    0.824016|    0.012106|
|         823|   -5.711445|   -8.543729|    0.824016|    0.012106|
|         824|   -5.727484|   -8.551911|    0.824016|    0.012106|
|         825|   -5.744235|   -8.560123|    0.824016|    0.012106|
|         826|   -5.761577|   -8.568260|    0.824016|    0.012106|
|         827|   -5.778736|   -8.576256|    0.824016|    0.012106|
|         828|   -5.794728|   -8.584021|    0.824016|    0.012106|
|         829|   -5.808703|   -8.591571|    0.824017|    0.012106|
|         830|   -5.820131|   -8.598901|    0.824017|    0.012106|
|         831|   -5.828893|   -8.606029|    0.824017|    0.012106|
|         832|   -5.835330|   -8.612940|    0.824017|    0.012106|
|         833|   -5.840197|   -8.619631|    0.824017|    0.012106|
|         834|   -5.844504|   -8.626094|    0.824017|    0.012106|
|         835|   -5.849268|   -8.632298|    0.824017|    0.012106|
|         836|   -5.855294|   -8.638194|    0.824017|    0.012106|
|         837|   -5.863049|   -8.643730|    0.824017|    0.012106|
|         838|   -5.872610|   -8.648845|    0.824017|    0.012106|
|         839|   -5.883684|   -8.653475|    0.824017|    0.012106|
|         840|   -5.895656|   -8.657560|    0.824017|    0.012106|
|         841|   -5.907685|   -8.661059|    0.824017|    0.012106|
|         842|   -5.918876|   -8.663939|    0.824017|    0.012106|
|         843|   -5.928492|   -8.666188|    0.824017|    0.012106|
|         844|   -5.936172|   -8.667815|    0.824017|    0.012106|
|         845|   -5.942036|   -8.668835|    0.824017|    0.012106|
|         846|   -5.946630|   -8.669273|    0.824017|    0.012106|
|         847|   -5.950733|   -8.669160|    0.824017|    0.012106|
|         848|   -5.955128|   -8.668524|    0.824016|    0.012106|
|         849|   -5.960424|   -8.667400|    0.824016|    0.012106|
|         850|   -5.966958|   -8.665817|    0.824016|    0.012106|
|         851|   -5.974786|   -8.663782|    0.824016|    0.012106|
|         852|   -5.983723|   -8.661385|    0.824016|    0.012106|
|         853|   -5.993428|   -8.658628|    0.824016|    0.012106|
|         854|   -6.003496|   -8.655555|    0.824015|    0.012106|
|         855|   -6.013547|   -8.652218|    0.824015|    0.012106|
|         856|   -6.023311|   -8.648688|    0.824015|    0.012106|
|         857|   -6.032657|   -8.645052|    0.824014|    0.012106|
|         858|   -6.041605|   -8.641406|    0.824014|    0.012106|
|         859|   -6.050282|   -8.637859|    0.824014|    0.012106|
|         860|   -6.058878|   -8.634522|    0.824013|    0.012106|
|         861|   -6.067589|   -8.631512|    0.824013|    0.012106|
|         862|   -6.076573|   -8.628945|    0.824012|    0.012106|
|         863|   -6.085936|   -8.626934|    0.824012|    0.012106|
|         864|   -6.095723|   -8.625589|    0.824011|    0.012106|
|         865|   -6.105931|   -8.625011|    0.824011|    0.012106|
|         866|   -6.116525|   -8.625294|    0.824010|    0.012106|
|         867|   -6.127453|   -8.626521|    0.824010|    0.012106|
|         868|   -6.138664|   -8.628754|    0.824009|    0.012106|
|         869|   -6.150109|   -8.632042|    0.824009|    0.012107|
|         870|   -6.161748|   -8.636406|    0.824008|    0.012107|
|         871|   -6.173545|   -8.641847|    0.824007|    0.012107|
|         872|   -6.185461|   -8.648331|    0.824007|    0.012107|
|         873|   -6.197449|   -8.655787|    0.824006|    0.012107|
|         874|   -6.209448|   -8.664102|    0.824006|    0.012107|
|         875|   -6.221381|   -8.673115|    0.824005|    0.012107|
|         876|   -6.233157|   -8.682608|    0.824005|    0.012107|
|         877|   -6.244671|   -8.692307|    0.824004|    0.012107|
|         878|   -6.255812|   -8.701882|    0.824004|    0.012107|
|         879|   -6.266462|   -8.710956|    0.824004|    0.012107|
|         880|   -6.276509|   -8.719125|    0.824003|    0.012107|
|         881|   -6.285849|   -8.725986|    0.824003|    0.012107|
|         882|   -6.294390|   -8.731176|    0.824003|    0.012107|
|         883|   -6.302059|   -8.734414|    0.824002|    0.012107|
|         884|   -6.308804|   -8.735542|    0.824002|    0.012107|
|         885|   -6.314599|   -8.734545|    0.824002|    0.012107|
|         886|   -6.319442|   -8.731557|    0.824002|    0.012107|
|         887|   -6.323357|   -8.726842|    0.824002|    0.012107|
|         888|   -6.326390|   -8.720757|    0.824002|    0.012107|
|         889|   -6.328611|   -8.713717|    0.824002|    0.012107|
|         890|   -6.330103|   -8.706145|    0.824002|    0.012108|
|         891|   -6.330960|   -8.698449|    0.824002|    0.012108|
|         892|   -6.331282|   -8.690994|    0.824002|    0.012108|
|         893|   -6.331172|   -8.684096|    0.824002|    0.012108|
|         894|   -6.330725|   -8.678017|    0.824002|    0.012108|
|         895|   -6.330036|   -8.672964|    0.824002|    0.012108|
|         896|   -6.329186|   -8.669097|    0.824002|    0.012108|
|         897|   -6.328249|   -8.666532|    0.824002|    0.012108|
|         898|   -6.327288|   -8.665348|    0.824003|    0.012108|
|         899|   -6.326357|   -8.665594|    0.824003|    0.012108|
|         900|   -6.325499|   -8.667284|    0.824003|    0.012108|
|         901|   -6.324751|   -8.670410|    0.824003|    0.012108|
+-----------------------------------------------------------------------+
|Fixed CL Mode                           |Value                         |
+-----------------------------------------------------------------------+
|Current CL                              |0.824003                      |
|Target CL                               |0.824                         |
|Previous AOA                            |2.78428                       |
[...]
|        5298|   -6.040209|   -7.928554|    0.824239|    0.012112|
|        5299|   -6.046800|   -7.932795|    0.824240|    0.012112|
|        5300|   -6.053036|   -7.937118|    0.824240|    0.012112|
|        5301|   -6.058880|   -7.941537|    0.824240|    0.012112|
|        5302|   -6.064303|   -7.946064|    0.824240|    0.012112|
|        5303|   -6.069289|   -7.950705|    0.824240|    0.012112|
|        5304|   -6.073831|   -7.955464|    0.824240|    0.012112|
|        5305|   -6.077932|   -7.960344|    0.824240|    0.012112|
|        5306|   -6.081609|   -7.965344|    0.824240|    0.012112|
|        5307|   -6.084884|   -7.970460|    0.824241|    0.012112|
|        5308|   -6.087790|   -7.975689|    0.824241|    0.012112|
|        5309|   -6.090368|   -7.981027|    0.824241|    0.012112|
|        5310|   -6.092663|   -7.986468|    0.824241|    0.012112|
|        5311|   -6.094726|   -7.992009|    0.824241|    0.012112|
|        5312|   -6.096608|   -7.997644|    0.824241|    0.012112|
|        5313|   -6.098363|   -8.003370|    0.824241|    0.012112|
|        5314|   -6.100041|   -8.009184|    0.824241|    0.012112|
|        5315|   -6.101694|   -8.015085|    0.824242|    0.012112|
|        5316|   -6.103366|   -8.021071|    0.824242|    0.012112|
|        5317|   -6.105100|   -8.027141|    0.824242|    0.012112|
|        5318|   -6.106934|   -8.033294|    0.824242|    0.012112|
|        5319|   -6.108899|   -8.039528|    0.824242|    0.012112|
|        5320|   -6.111022|   -8.045843|    0.824242|    0.012112|
|        5321|   -6.113321|   -8.052238|    0.824243|    0.012112|
|        5322|   -6.115811|   -8.058711|    0.824243|    0.012112|
|        5323|   -6.118499|   -8.065259|    0.824243|    0.012112|
|        5324|   -6.121386|   -8.071879|    0.824243|    0.012112|
|        5325|   -6.124466|   -8.078567|    0.824243|    0.012112|
|        5326|   -6.127727|   -8.085315|    0.824243|    0.012112|
|        5327|   -6.131151|   -8.092116|    0.824244|    0.012112|
|        5328|   -6.134714|   -8.098960|    0.824244|    0.012112|
|        5329|   -6.138390|   -8.105837|    0.824244|    0.012113|
|        5330|   -6.142146|   -8.112738|    0.824244|    0.012113|
|        5331|   -6.145945|   -8.119649|    0.824244|    0.012113|
|        5332|   -6.149749|   -8.126556|    0.824244|    0.012113|
|        5333|   -6.153519|   -8.133446|    0.824245|    0.012113|
|        5334|   -6.157216|   -8.140305|    0.824245|    0.012113|
|        5335|   -6.160800|   -8.147121|    0.824245|    0.012113|
|        5336|   -6.164234|   -8.153885|    0.824245|    0.012113|
|        5337|   -6.167487|   -8.160585|    0.824245|    0.012113|
|        5338|   -6.170531|   -8.167214|    0.824245|    0.012113|
|        5339|   -6.173345|   -8.173766|    0.824246|    0.012113|
|        5340|   -6.175914|   -8.180237|    0.824246|    0.012114|
|        5341|   -6.178234|   -8.186624|    0.824246|    0.012114|
|        5342|   -6.180305|   -8.192927|    0.824246|    0.012114|
|        5343|   -6.182137|   -8.199149|    0.824246|    0.012114|
|        5344|   -6.183748|   -8.205296|    0.824246|    0.012114|
|        5345|   -6.185162|   -8.211373|    0.824246|    0.012114|
|        5346|   -6.186411|   -8.217391|    0.824247|    0.012114|
|        5347|   -6.187529|   -8.223360|    0.824247|    0.012114|
|        5348|   -6.188558|   -8.229293|    0.824247|    0.012114|
|        5349|   -6.189537|   -8.235202|    0.824247|    0.012114|
|        5350|   -6.190511|   -8.241104|    0.824247|    0.012114|
|        5351|   -6.191523|   -8.247012|    0.824247|    0.012114|
|        5352|   -6.192614|   -8.252942|    0.824247|    0.012114|
|        5353|   -6.193827|   -8.258907|    0.824247|    0.012114|
|        5354|   -6.195198|   -8.264922|    0.824247|    0.012114|
|        5355|   -6.196763|   -8.270998|    0.824247|    0.012114|
|        5356|   -6.198552|   -8.277145|    0.824248|    0.012114|
|        5357|   -6.200594|   -8.283371|    0.824248|    0.012114|
|        5358|   -6.202911|   -8.289687|    0.824248|    0.012114|
|        5359|   -6.205521|   -8.296100|    0.824248|    0.012114|
|        5360|   -6.208438|   -8.302617|    0.824248|    0.012114|
|        5361|   -6.211669|   -8.309243|    0.824248|    0.012114|
|        5362|   -6.215220|   -8.315980|    0.824248|    0.012114|
|        5363|   -6.219089|   -8.322827|    0.824248|    0.012114|
|        5364|   -6.223270|   -8.329784|    0.824248|    0.012114|
|        5365|   -6.227752|   -8.336846|    0.824248|    0.012114|
|        5366|   -6.232520|   -8.344007|    0.824248|    0.012114|
|        5367|   -6.237552|   -8.351261|    0.824248|    0.012114|
|        5368|   -6.242822|   -8.358599|    0.824248|    0.012114|
|        5369|   -6.248299|   -8.366009|    0.824248|    0.012114|
|        5370|   -6.253952|   -8.373476|    0.824248|    0.012114|
|        5371|   -6.259741|   -8.380988|    0.824248|    0.012114|
|        5372|   -6.265626|   -8.388529|    0.824248|    0.012114|
|        5373|   -6.271561|   -8.396083|    0.824248|    0.012114|
|        5374|   -6.277500|   -8.403634|    0.824248|    0.012114|
|        5375|   -6.283399|   -8.411163|    0.824248|    0.012114|
|        5376|   -6.289204|   -8.418655|    0.824248|    0.012114|
|        5377|   -6.294868|   -8.426094|    0.824248|    0.012114|
|        5378|   -6.300343|   -8.433461|    0.824248|    0.012114|
|        5379|   -6.305584|   -8.440739|    0.824248|    0.012114|
|        5380|   -6.310552|   -8.447907|    0.824248|    0.012114|
|        5381|   -6.315211|   -8.454947|    0.824248|    0.012114|
|        5382|   -6.319532|   -8.461834|    0.824248|    0.012113|
|        5383|   -6.323490|   -8.468549|    0.824248|    0.012113|
|        5384|   -6.327072|   -8.475070|    0.824249|    0.012113|
|        5385|   -6.330267|   -8.481377|    0.824249|    0.012113|
|        5386|   -6.333075|   -8.487448|    0.824249|    0.012113|
|        5387|   -6.335501|   -8.493261|    0.824249|    0.012113|
|        5388|   -6.337558|   -8.498794|    0.824249|    0.012113|
|        5389|   -6.339261|   -8.504022|    0.824249|    0.012113|
|        5390|   -6.340632|   -8.508920|    0.824249|    0.012113|
|        5391|   -6.341696|   -8.513460|    0.824249|    0.012113|
|        5392|   -6.342478|   -8.517617|    0.824250|    0.012113|
|        5393|   -6.343006|   -8.521360|    0.824250|    0.012112|
|        5394|   -6.343308|   -8.524660|    0.824250|    0.012112|
|        5395|   -6.343410|   -8.527482|    0.824250|    0.012112|
|        5396|   -6.343339|   -8.529804|    0.824250|    0.012112|
|        5397|   -6.343118|   -8.531606|    0.824250|    0.012112|
|        5398|   -6.342768|   -8.532874|    0.824251|    0.012112|
|        5399|   -6.342310|   -8.533601|    0.824251|    0.012112|
|        5400|   -6.341758|   -8.533784|    0.824251|    0.012112|
|        5401|   -6.341128|   -8.533428|    0.824251|    0.012112|
|        5402|   -6.340431|   -8.532545|    0.824252|    0.012112|
|        5403|   -6.339678|   -8.531153|    0.824252|    0.012111|
|        5404|   -6.338877|   -8.529277|    0.824252|    0.012111|
|        5405|   -6.338034|   -8.526949|    0.824252|    0.012111|
|        5406|   -6.337155|   -8.524207|    0.824253|    0.012111|
|        5407|   -6.336243|   -8.521094|    0.824253|    0.012111|
|        5408|   -6.335304|   -8.517656|    0.824253|    0.012111|
|        5409|   -6.334340|   -8.513944|    0.824253|    0.012111|
|        5410|   -6.333355|   -8.510007|    0.824254|    0.012111|
|        5411|   -6.332350|   -8.505895|    0.824254|    0.012111|
|        5412|   -6.331330|   -8.501662|    0.824254|    0.012111|
|        5413|   -6.330296|   -8.497354|    0.824254|    0.012111|
|        5414|   -6.329254|   -8.493015|    0.824255|    0.012111|
|        5415|   -6.328207|   -8.488681|    0.824255|    0.012111|
|        5416|   -6.327160|   -8.484386|    0.824255|    0.012111|
|        5417|   -6.326117|   -8.480158|    0.824255|    0.012110|
|        5418|   -6.325084|   -8.476021|    0.824256|    0.012110|
|        5419|   -6.324066|   -8.471995|    0.824256|    0.012110|
|        5420|   -6.323072|   -8.468094|    0.824256|    0.012110|
|        5421|   -6.322108|   -8.464330|    0.824256|    0.012110|
|        5422|   -6.321182|   -8.460710|    0.824256|    0.012110|
|        5423|   -6.320304|   -8.457239|    0.824257|    0.012110|
|        5424|   -6.319483|   -8.453917|    0.824257|    0.012110|
|        5425|   -6.318729|   -8.450745|    0.824257|    0.012110|
|        5426|   -6.318053|   -8.447718|    0.824257|    0.012110|
|        5427|   -6.317468|   -8.444839|    0.824257|    0.012110|
|        5428|   -6.316985|   -8.442100|    0.824258|    0.012110|
|        5429|   -6.316618|   -8.439492|    0.824258|    0.012110|
|        5430|   -6.316379|   -8.437007|    0.824258|    0.012110|
|        5431|   -6.316284|   -8.434636|    0.824258|    0.012110|
|        5432|   -6.316346|   -8.432369|    0.824258|    0.012110|
|        5433|   -6.316579|   -8.430199|    0.824258|    0.012110|
|        5434|   -6.316997|   -8.428119|    0.824259|    0.012110|
|        5435|   -6.317614|   -8.426122|    0.824259|    0.012110|
|        5436|   -6.318443|   -8.424202|    0.824259|    0.012110|
|        5437|   -6.319496|   -8.422354|    0.824259|    0.012110|
|        5438|   -6.320785|   -8.420575|    0.824259|    0.012110|
|        5439|   -6.322320|   -8.418859|    0.824259|    0.012110|
|        5440|   -6.324110|   -8.417205|    0.824259|    0.012111|
|        5441|   -6.326161|   -8.415611|    0.824260|    0.012111|
|        5442|   -6.328480|   -8.414074|    0.824260|    0.012111|
|        5443|   -6.331069|   -8.412594|    0.824260|    0.012111|
|        5444|   -6.333928|   -8.411169|    0.824260|    0.012111|
|        5445|   -6.337055|   -8.409799|    0.824260|    0.012111|
|        5446|   -6.340447|   -8.408484|    0.824260|    0.012111|
|        5447|   -6.344096|   -8.407223|    0.824260|    0.012111|
|        5448|   -6.347990|   -8.406015|    0.824260|    0.012111|
|        5449|   -6.352115|   -8.404859|    0.824260|    0.012111|
|        5450|   -6.356455|   -8.403755|    0.824260|    0.012111|
|        5451|   -6.360987|   -8.402702|    0.824260|    0.012111|
|        5452|   -6.365687|   -8.401698|    0.824261|    0.012111|
|        5453|   -6.370526|   -8.400744|    0.824261|    0.012111|
|        5454|   -6.375474|   -8.399837|    0.824261|    0.012112|
|        5455|   -6.380496|   -8.398975|    0.824261|    0.012112|
|        5456|   -6.385553|   -8.398158|    0.824261|    0.012112|
|        5457|   -6.390606|   -8.397382|    0.824261|    0.012112|
|        5458|   -6.395611|   -8.396647|    0.824261|    0.012112|
|        5459|   -6.400527|   -8.395949|    0.824261|    0.012112|
|        5460|   -6.405308|   -8.395288|    0.824261|    0.012112|
|        5461|   -6.409911|   -8.394659|    0.824261|    0.012112|
|        5462|   -6.414293|   -8.394060|    0.824261|    0.012112|
|        5463|   -6.418414|   -8.393489|    0.824261|    0.012112|
|        5464|   -6.422237|   -8.392944|    0.824261|    0.012112|
|        5465|   -6.425730|   -8.392423|    0.824261|    0.012112|
|        5466|   -6.428865|   -8.391925|    0.824261|    0.012112|
|        5467|   -6.431621|   -8.391446|    0.824261|    0.012113|
|        5468|   -6.433982|   -8.390985|    0.824261|    0.012113|
|        5469|   -6.435943|   -8.390539|    0.824261|    0.012113|
|        5470|   -6.437502|   -8.390106|    0.824261|    0.012113|
|        5471|   -6.438665|   -8.389683|    0.824261|    0.012113|
|        5472|   -6.439448|   -8.389267|    0.824260|    0.012113|
|        5473|   -6.439869|   -8.388855|    0.824260|    0.012113|
|        5474|   -6.439954|   -8.388444|    0.824260|    0.012113|
|        5475|   -6.439732|   -8.388032|    0.824260|    0.012113|
|        5476|   -6.439238|   -8.387614|    0.824260|    0.012113|
|        5477|   -6.438508|   -8.387188|    0.824260|    0.012113|
|        5478|   -6.437579|   -8.386752|    0.824260|    0.012113|
|        5479|   -6.436491|   -8.386300|    0.824260|    0.012113|
|        5480|   -6.435283|   -8.385831|    0.824260|    0.012113|
|        5481|   -6.433992|   -8.385340|    0.824260|    0.012113|
|        5482|   -6.432656|   -8.384826|    0.824260|    0.012113|
|        5483|   -6.431309|   -8.384284|    0.824260|    0.012113|
|        5484|   -6.429985|   -8.383713|    0.824260|    0.012113|
|        5485|   -6.428715|   -8.383109|    0.824260|    0.012113|
|        5486|   -6.427526|   -8.382471|    0.824260|    0.012113|
|        5487|   -6.426443|   -8.381797|    0.824260|    0.012113|
|        5488|   -6.425488|   -8.381085|    0.824260|    0.012113|
|        5489|   -6.424683|   -8.380334|    0.824260|    0.012113|
|        5490|   -6.424043|   -8.379543|    0.824260|    0.012113|
|        5491|   -6.423584|   -8.378712|    0.824260|    0.012113|
|        5492|   -6.423317|   -8.377842|    0.824260|    0.012113|
|        5493|   -6.423253|   -8.376931|    0.824260|    0.012113|
|        5494|   -6.423399|   -8.375980|    0.824260|    0.012113|
|        5495|   -6.423762|   -8.374991|    0.824260|    0.012113|
|        5496|   -6.424344|   -8.373965|    0.824260|    0.012113|
|        5497|   -6.425149|   -8.372902|    0.824260|    0.012113|
|        5498|   -6.426178|   -8.371804|    0.824260|    0.012113|
|        5499|   -6.427429|   -8.370673|    0.824260|    0.012099|
+-----------------------------------------------------------------------+
|Fixed CL Mode (Finite Difference)       |Value                         |
+-----------------------------------------------------------------------+
|Delta CL / Delta AoA                    |0.260013                      |
|Delta CD / Delta CL                     |0.0206616                     |
|Delta CMz / Delta CL                    |0.0249325                     |
+-----------------------------------------------------------------------+
Writing Flow Meta-Data file: flow.meta

----------------------------- Solver Exit -------------------------------

Maximum number of iterations reached (ITER = 5500) before convergence.
+-----------------------------------------------------------------------+
|      Convergence Field     |     Value    |   Criterion  |  Converged |
+-----------------------------------------------------------------------+
|                    rms[Rho]|      -6.42743|         < -12|          No|
+-----------------------------------------------------------------------+
-------------------------------------------------------------------------

--------------------------- Finalizing Solver ---------------------------
Deleted CNumerics container.
Deleted CIntegration container.
Deleted CSolver container.
Deleted CIteration container.
Deleted CInterface container.
Deleted CGeometry container.
Deleted CFreeFormDefBox class.
Deleted CSurfaceMovement class.
Deleted CVolumetricMovement class.
Deleted CConfig container.
Deleted nInst container.
Deleted COutput class.
-------------------------------------------------------------------------

------------------------- Exit Success (SU2_CFD) ------------------------


-------------------------------------------------------------------------
|    ___ _   _ ___                                                      |
|   / __| | | |_  )   Release 8.0.0 "Harrier"                           |
|   \__ \ |_| |/ /                                                      |
|   |___/\___//___|   Suite (Solution Exporting Code)                   |
|                                                                       |
-------------------------------------------------------------------------
| SU2 Project Website: https://su2code.github.io                        |
|                                                                       |
| The SU2 Project is maintained by the SU2 Foundation                   |
| (http://su2foundation.org)                                            |
-------------------------------------------------------------------------
| Copyright 2012-2023, SU2 Contributors                                 |
|                                                                       |
| SU2 is free software; you can redistribute it and/or                  |
| modify it under the terms of the GNU Lesser General Public            |
| License as published by the Free Software Foundation; either          |
| version 2.1 of the License, or (at your option) any later version.    |
|                                                                       |
| SU2 is distributed in the hope that it will be useful,                |
| but WITHOUT ANY WARRANTY; without even the implied warranty of        |
| MERCHANTABILITY or FITNESS FOR A PARTICULAR PURPOSE. See the GNU      |
| Lesser General Public License for more details.                       |
|                                                                       |
| You should have received a copy of the GNU Lesser General Public      |
| License along with SU2. If not, see <http://www.gnu.org/licenses/>.   |
-------------------------------------------------------------------------

----------------- Physical Case Definition ( Zone 0 ) -------------------
Input mesh file name: mesh_RAE2822_turb_deform.su2

-------------------- Output Information ( Zone 0 ) ----------------------
The tabular file format is CSV (.csv).
Flow variables file name: flow.

------------- Config File Boundary Information ( Zone 0 ) ---------------
+-----------------------------------------------------------------------+
|                        Marker Type|                        Marker Name|
+-----------------------------------------------------------------------+
|                          Far-field|                           FARFIELD|
+-----------------------------------------------------------------------+
|                     Heat flux wall|                            AIRFOIL|
+-----------------------------------------------------------------------+
Two dimensional problem.
13937 grid points before partitioning.
22842 volume elements before partitioning.
2 surface markers.
192 boundary elements in index 0 (Marker = AIRFOIL).
40 boundary elements in index 1 (Marker = FARFIELD).
Executing the partitioning functions.
Building the graph adjacency structure.
Calling ParMETIS... graph partitioning complete (831 edge cuts).
Distributing ParMETIS coloring.
Rebalancing vertices.
Rebalancing volume element connectivity.
Rebalancing markers and surface elements.
14875 vertices including ghost points. 
23674 interior elements including halo cells. 
18780 triangles.
4894 quadrilaterals.
Establishing MPI communication patterns.
Identify vertices.
Storing a mapping from global to local point index.

------------------------- Solution Postprocessing -----------------------
Reading and storing the solution from restart_flow.
Volume output fields: COORDINATES, SOLUTION
  Info: Ignoring the following screen output fields:
  RMS_DENSITY, RMS_NU_TILDE, LIFT, DRAG
Screen output fields: INNER_ITER
  Info: Ignoring the following history output groups:
  RMS_RES, AERO_COEFF
History output group(s): ITER
Warning: No (valid) fields chosen for convergence monitoring. Convergence monitoring inactive.
Warning: No (valid) fields chosen for time convergence monitoring. Time convergence monitoring inactive.
|Paraview                           |flow.vtu                           |
|Paraview surface                   |surface_flow.vtu                   |
|CSV file                           |surface_flow.csv                   |

------------------------- Finalize Solver -------------------------
Deleted CGeometry container.
Deleted CSolver class.
Deleted CConfig container.
Deleted COutput class.

Completed in 0.016281 seconds on 6 cores.

------------------------- Exit Success (SU2_SOL) ------------------------

