
-------------------------------------------------------------------------
|    ___ _   _ ___                                                      |
|   / __| | | |_  )   Release 8.0.0 "Harrier"                           |
|   \__ \ |_| |/ /                                                      |
|   |___/\___//___|   Suite (Computational Fluid Dynamics Code)         |
|                                                                       |
-------------------------------------------------------------------------
| SU2 Project Website: https://su2code.github.io                        |
|                                                                       |
| The SU2 Project is maintained by the SU2 Foundation                   |
| (http://su2foundation.org)                                            |
-------------------------------------------------------------------------
| Copyright 2012-2023, SU2 Contributors                                 |
|                                                                       |
| SU2 is free software; you can redistribute it and/or                  |
| modify it under the terms of the GNU Lesser General Public            |
| License as published by the Free Software Foundation; either          |
| version 2.1 of the License, or (at your option) any later version.    |
|                                                                       |
| SU2 is distributed in the hope that it will be useful,                |
| but WITHOUT ANY WARRANTY; without even the implied warranty of        |
| MERCHANTABILITY or FITNESS FOR A PARTICULAR PURPOSE. See the GNU      |
| Lesser General Public License for more details.                       |
|                                                                       |
| You should have received a copy of the GNU Lesser General Public      |
| License along with SU2. If not, see <http://www.gnu.org/licenses/>.   |
-------------------------------------------------------------------------

Parsing config file for zone 0

----------------- Physical Case Definition ( Zone 0 ) -------------------
Compressible RANS equations.
Turbulence model: Spalart-Allmaras-noft2
Hybrid RANS/LES: No Hybrid RANS/LES
Mach number: 0.734.
Angle of attack (AoA): 2.31 deg, and angle of sideslip (AoS): 0 deg.
Reynolds number: 6.5e+06. Reference length 1.
Fixed CL mode, target value: 0.824.
Reading and writing binary SU2 native restart files.
Read flow solution from: solution_flow.dat.
Dimensional simulation.
The reference area is 1 m^2.
The semi-span will be computed using the max y(3D) value.
The reference length is 1 m.
Reference origin for moment evaluation is (0.25, 0, 0).
Surface(s) where the force coefficients are evaluated: AIRFOIL.

Surface(s) plotted in the output file: AIRFOIL.
Surface(s) affected by the design variables: AIRFOIL.
Input mesh file name: mesh_RAE2822_turb_deform.su2

--------------- Space Numerical Integration ( Zone 0 ) ------------------
Jameson-Schmidt-Turkel scheme (2nd order in space) for the flow inviscid terms.
JST viscous coefficients (2nd & 4th): 0.5, 0.02.
The method includes a grid stretching correction (p = 0.3).
Scalar upwind solver for the turbulence model.
First order integration in space.
Average of gradients with correction (viscous flow terms).
Average of gradients with correction (viscous turbulence terms).
Gradient for viscous and source terms: inverse-distance weighted Least-Squares.

--------------- Time Numerical Integration  ( Zone 0 ) ------------------
Local time stepping (steady state simulation).
Euler implicit method for the flow equations.
FGMRES is used for solving the linear system.
Using a ILU(0) preconditioning.
Convergence criteria of the linear solver: 1e-06.
Max number of linear iterations: 10.
No CFL adaptation.
Courant-Friedrichs-Lewy number:       10
Euler implicit time integration for the turbulence model.

------------------ Convergence Criteria  ( Zone 0 ) ---------------------
Maximum number of solver subiterations: 5500.
Begin convergence monitoring at iteration 10.
Residual minimum value: 1e-12.
Cauchy series min. value: 1e-06.
Number of Cauchy elements: 100.
Begin windowed time average at iteration 0.

-------------------- Output Information ( Zone 0 ) ----------------------
File writing frequency: 
+------------------------------------+
|                     File| Frequency|
+------------------------------------+
|                  RESTART|     10000|
|                 PARAVIEW|     10000|
|         SURFACE_PARAVIEW|     10000|
|              SURFACE_CSV|     10000|
+------------------------------------+
Writing the convergence history file every 1 inner iterations.
Writing the screen convergence history every 1 inner iterations.
The tabular file format is CSV (.csv).
Convergence history file name: history_direct.
Forces breakdown file name: forces_breakdown.dat.
Surface file name: surface_flow.
Volume file name: flow.
Restart file name: restart_flow.dat.

------------- Config File Boundary Information ( Zone 0 ) ---------------
+-----------------------------------------------------------------------+
|                        Marker Type|                        Marker Name|
+-----------------------------------------------------------------------+
|                          Far-field|                           FARFIELD|
+-----------------------------------------------------------------------+
|                     Heat flux wall|                            AIRFOIL|
+-----------------------------------------------------------------------+

-------------------- Output Preprocessing ( Zone 0 ) --------------------

WARNING: SURFACE_PRESSURE_DROP can only be computed for at least 2 surfaces (outlet, inlet, ...)

Screen output fields: INNER_ITER, RMS_DENSITY, RMS_NU_TILDE, LIFT, DRAG
History output group(s): ITER, RMS_RES, AERO_COEFF
Convergence field(s): RMS_DENSITY
Warning: No (valid) fields chosen for time convergence monitoring. Time convergence monitoring inactive.
Volume output fields: COORDINATES, SOLUTION, PRIMITIVE

------------------- Geometry Preprocessing ( Zone 0 ) -------------------
Two dimensional problem.
13937 grid points before partitioning.
22842 volume elements before partitioning.
2 surface markers.
192 boundary elements in index 0 (Marker = AIRFOIL).
40 boundary elements in index 1 (Marker = FARFIELD).
Executing the partitioning functions.
Building the graph adjacency structure.
Calling ParMETIS... graph partitioning complete (831 edge cuts).
Distributing ParMETIS coloring.
Rebalancing vertices.
Rebalancing volume element connectivity.
Rebalancing markers and surface elements.
14875 vertices including ghost points. 
23674 interior elements including halo cells. 
18780 triangles.
4894 quadrilaterals.
Establishing MPI communication patterns.
Setting point connectivity.
Renumbering points (Reverse Cuthill McKee Ordering).
Recomputing point connectivity.
Setting element connectivity.
Checking the numerical grid orientation.
All volume elements are correctly orientend.
All surface elements are correctly orientend.
Identifying edges and vertices.
Setting the control volume structure.
Area of the computational grid: 32209.9.
Searching for the closest normal neighbors to the surfaces.
Storing a mapping from global to local point index.
Compute the surface curvature.
Max K: 208.19. Mean K: 8.37926. Standard deviation K: 27.3163.
Checking for periodicity.
Computing mesh quality statistics for the dual control volumes.
+--------------------------------------------------------------+
|           Mesh Quality Metric|        Minimum|        Maximum|
+--------------------------------------------------------------+
|    Orthogonality Angle (deg.)|         74.446|        89.9998|
|     CV Face Area Aspect Ratio|        1.00104|        3359.05|
|           CV Sub-Volume Ratio|        1.00066|        1219.91|
+--------------------------------------------------------------+
Finding max control volume width.
Communicating number of neighbors.
Wetted area = 2.02132 m.
Area projection in the x-plane = 0.128058 m, y-plane = 0.995873 m.
Max. coordinate in the x-direction = 1 m, y-direction = 0.0615155 m.
Min. coordinate in the x-direction = 0 m, y-direction = -0.0626575 m.
Computing wall distances.

-------------------- Solver Preprocessing ( Zone 0 ) --------------------
WARNING: AoA in the solution file (2.76558 deg.) +
         AoA offset in mesh file (0 deg.) = 2.76558 deg.
WARNING: SU2 will use the dCD/dCL provided in the direct solution file: 0.0205988.
WARNING: SU2 will use the dCMz/dCL provided in the direct solution file: 0.0157598.
Viscous flow: Computing pressure using the ideal gas law
based on the free-stream temperature and a density computed
from the Reynolds number.
Force coefficients computed using free-stream values.

-- Models:
+------------------------------------------------------------------------------+
|          Viscosity Model|        Conductivity Model|              Fluid Model|
+------------------------------------------------------------------------------+
|               SUTHERLAND|          CONSTANT_PRANDTL|             STANDARD_AIR|
+------------------------------------------------------------------------------+
-- Fluid properties:
+------------------------------------------------------------------------------+
|                  Name|    Dim. value|    Ref. value|      Unit|Non-dim. value|
+------------------------------------------------------------------------------+
|        Ref. Viscosity|     1.716e-05|             1|   N.s/m^2|     1.716e-05|
|      Sutherland Temp.|        273.15|             1|         K|        273.15|
|     Sutherland Const.|         110.4|             1|         K|         110.4|
+------------------------------------------------------------------------------+
|        Prandtl (Lam.)|             -|             -|         -|          0.71|
|       Prandtl (Turb.)|             -|             -|         -|           0.9|
+------------------------------------------------------------------------------+
|          Gas Constant|       287.058|             1|  N.m/kg.K|       287.058|
|      Spec. Heat Ratio|             -|             -|         -|           1.4|
+------------------------------------------------------------------------------+
-- Initial and free-stream conditions:
+------------------------------------------------------------------------------+
|                  Name|    Dim. value|    Ref. value|      Unit|Non-dim. value|
+------------------------------------------------------------------------------+
|       Static Pressure|         38515|             1|        Pa|         38515|
|               Density|      0.465631|             1|    kg/m^3|      0.465631|
|           Temperature|        288.15|             1|         K|        288.15|
|          Total Energy|        237984|             1|   m^2/s^2|        237984|
|            Velocity-X|       249.487|             1|       m/s|       249.487|
|            Velocity-Y|       12.0517|             1|       m/s|       12.0517|
|    Velocity Magnitude|       249.778|             1|       m/s|       249.778|
+------------------------------------------------------------------------------+
|             Viscosity|    1.7893e-05|             1|   N.s/m^2|    1.7893e-05|
|          Conductivity|             -|             1|   W/m^2.K|             -|
|     Turb. Kin. Energy|       233.959|             1|   m^2/s^2|       233.959|
|     Spec. Dissipation|        608834|             1|       1/s|        608834|
+------------------------------------------------------------------------------+
|           Mach Number|             -|             -|         -|         0.734|
|       Reynolds Number|             -|             -|         -|       6.5e+06|
+------------------------------------------------------------------------------+
Initialize Jacobian structure (Navier-Stokes). MG level: 0.
Initialize Jacobian structure (SA model).

------------------- Numerics Preprocessing ( Zone 0 ) -------------------

----------------- Integration Preprocessing ( Zone 0 ) ------------------

------------------- Iteration Preprocessing ( Zone 0 ) ------------------
Euler/Navier-Stokes/RANS fluid iteration.

------------------------------ Begin Solver -----------------------------

Simulation Run using the Single-zone Driver
WARNING: SU2 was not compiled for an AVX-capable architecture. Performance could be better,
         see https://su2code.github.io/docs_v7/Build-SU2-Linux-MacOS/#compiler-optimizations
+----------------------------------------------------------------+
|  Inner_Iter|    rms[Rho]|     rms[nu]|          CL|          CD|
+----------------------------------------------------------------+
|           0|   -9.584746|  -10.995078|    0.824000|    0.011994|
|           1|   -9.640706|  -11.093336|    0.824000|    0.011994|
|           2|   -9.699525|  -11.219907|    0.824000|    0.011994|
|           3|   -9.743993|  -11.373323|    0.824000|    0.011994|
|           4|   -9.774490|  -11.535709|    0.824000|    0.011994|
|           5|   -9.792763|  -11.650399|    0.824000|    0.011994|
|           6|   -9.800822|  -11.671892|    0.824000|    0.011994|
|           7|   -9.801598|  -11.645052|    0.824000|    0.011994|
|           8|   -9.797869|  -11.612365|    0.824000|    0.011994|
|           9|   -9.791416|  -11.579658|    0.824000|    0.011994|
|          10|   -9.783118|  -11.544429|    0.824000|    0.011994|
|          11|   -9.773489|  -11.509236|    0.824000|    0.011994|
|          12|   -9.763046|  -11.480429|    0.824000|    0.011994|
|          13|   -9.752346|  -11.463573|    0.824000|    0.011994|
|          14|   -9.741874|  -11.461597|    0.824000|    0.011994|
|          15|   -9.731982|  -11.474910|    0.824000|    0.011994|
|          16|   -9.722908|  -11.501484|    0.824000|    0.011994|
|          17|   -9.714856|  -11.536065|    0.824000|    0.011994|
|          18|   -9.708039|  -11.569024|    0.824000|    0.011994|
|          19|   -9.702671|  -11.587875|    0.824000|    0.011994|
|          20|   -9.698902|  -11.584799|    0.824000|    0.011994|
|          21|   -9.696767|  -11.563611|    0.824000|    0.011994|
|          22|   -9.696146|  -11.535406|    0.824000|    0.011994|
|          23|   -9.696784|  -11.509864|    0.824000|    0.011994|
|          24|   -9.698338|  -11.492173|    0.824000|    0.011994|
|          25|   -9.700451|  -11.483999|    0.824000|    0.011994|
|          26|   -9.702808|  -11.484888|    0.824000|    0.011994|
|          27|   -9.705177|  -11.493072|    0.824000|    0.011994|
|          28|   -9.707400|  -11.505852|    0.824000|    0.011994|
|          29|   -9.709366|  -11.519937|    0.824000|    0.011994|
|          30|   -9.710967|  -11.532041|    0.824000|    0.011994|
|          31|   -9.712072|  -11.539766|    0.824000|    0.011994|
|          32|   -9.712520|  -11.542374|    0.824000|    0.011994|
|          33|   -9.712151|  -11.540878|    0.824000|    0.011994|
|          34|   -9.710836|  -11.537369|    0.824000|    0.011994|
|          35|   -9.708528|  -11.534132|    0.824000|    0.011994|
|          36|   -9.705274|  -11.533036|    0.824000|    0.011994|
|          37|   -9.701214|  -11.535322|    0.824000|    0.011994|
|          38|   -9.696545|  -11.541639|    0.824000|    0.011994|
|          39|   -9.691489|  -11.552142|    0.824000|    0.011994|
|          40|   -9.686252|  -11.566585|    0.824000|    0.011994|
|          41|   -9.681000|  -11.584351|    0.824000|    0.011994|
|          42|   -9.675851|  -11.604446|    0.824000|    0.011994|
|          43|   -9.670870|  -11.625465|    0.824000|    0.011994|
|          44|   -9.666081|  -11.645612|    0.824000|    0.011994|
|          45|   -9.661466|  -11.662846|    0.824000|    0.011994|
|          46|   -9.656974|  -11.675234|    0.824000|    0.011994|
|          47|   -9.652531|  -11.681466|    0.824000|    0.011994|
|          48|   -9.648046|  -11.681287|    0.824000|    0.011994|
|          49|   -9.643422|  -11.675584|    0.824000|    0.011994|
|          50|   -9.638568|  -11.666038|    0.824000|    0.011994|
|          51|   -9.633414|  -11.654597|    0.824000|    0.011994|
|          52|   -9.627917|  -11.643034|    0.824000|    0.011994|
|          53|   -9.622071|  -11.632717|    0.824000|    0.011994|
|          54|   -9.615908|  -11.624568|    0.824000|    0.011994|
|          55|   -9.609490|  -11.619111|    0.824000|    0.011994|
|          56|   -9.602902|  -11.616555|    0.824000|    0.011994|
|          57|   -9.596236|  -11.616870|    0.824000|    0.011994|
|          58|   -9.589587|  -11.619852|    0.824000|    0.011994|
|          59|   -9.583037|  -11.625173|    0.824000|    0.011994|
|          60|   -9.576648|  -11.632426|    0.824000|    0.011994|
|          61|   -9.570462|  -11.641156|    0.824000|    0.011994|
|          62|   -9.564502|  -11.650895|    0.824000|    0.011994|
|          63|   -9.558772|  -11.661186|    0.824000|    0.011994|
|          64|   -9.553264|  -11.671600|    0.824000|    0.011994|
|          65|   -9.547968|  -11.681751|    0.824000|    0.011994|
|          66|   -9.542871|  -11.691311|    0.824000|    0.011994|
|          67|   -9.537963|  -11.700009|    0.824000|    0.011994|
|          68|   -9.533244|  -11.707649|    0.824000|    0.011994|
|          69|   -9.528719|  -11.714112|    0.824000|    0.011994|
|          70|   -9.524402|  -11.719364|    0.824000|    0.011994|
|          71|   -9.520311|  -11.723452|    0.824000|    0.011994|
|          72|   -9.516464|  -11.726487|    0.824000|    0.011994|
|          73|   -9.512878|  -11.728627|    0.824000|    0.011994|
|          74|   -9.509563|  -11.730039|    0.824000|    0.011994|
|          75|   -9.506524|  -11.730869|    0.824000|    0.011994|
|          76|   -9.503757|  -11.731222|    0.824000|    0.011994|
|          77|   -9.501247|  -11.731147|    0.824000|    0.011994|
|          78|   -9.498974|  -11.730642|    0.824000|    0.011994|
|          79|   -9.496909|  -11.729673|    0.824000|    0.011994|
|          80|   -9.495028|  -11.728196|    0.824000|    0.011994|
|          81|   -9.493296|  -11.726191|    0.824000|    0.011994|
|          82|   -9.491687|  -11.723680|    0.824000|    0.011994|
|          83|   -9.490174|  -11.720748|    0.824000|    0.011994|
|          84|   -9.488744|  -11.717533|    0.824000|    0.011994|
|          85|   -9.487386|  -11.714223|    0.824000|    0.011994|
|          86|   -9.486101|  -11.711028|    0.824000|    0.011994|
|          87|   -9.484900|  -11.708160|    0.824000|    0.011994|
|          88|   -9.483799|  -11.705809|    0.824000|    0.011994|
|          89|   -9.482828|  -11.704130|    0.824000|    0.011994|
|          90|   -9.482013|  -11.703232|    0.824000|    0.011994|
|          91|   -9.481392|  -11.703176|    0.824000|    0.011994|
|          92|   -9.481004|  -11.703978|    0.824000|    0.011994|
|          93|   -9.480888|  -11.705613|    0.824000|    0.011994|
|          94|   -9.481081|  -11.708027|    0.824000|    0.011994|
|          95|   -9.481612|  -11.711143|    0.824000|    0.011994|
|          96|   -9.482512|  -11.714871|    0.824000|    0.011994|
|          97|   -9.483798|  -11.719116|    0.824000|    0.011994|
|          98|   -9.485483|  -11.723784|    0.824000|    0.011994|
|          99|   -9.487568|  -11.728789|    0.824000|    0.011994|
|         100|   -9.490042|  -11.734051|    0.824000|    0.011994|
|         101|   -9.492879|  -11.739505|    0.824000|    0.011994|
|         102|   -9.496045|  -11.745096|    0.824000|    0.011994|
|         103|   -9.499484|  -11.750780|    0.824000|    0.011994|
|         104|   -9.503132|  -11.756525|    0.824000|    0.011994|
|         105|   -9.506913|  -11.762309|    0.824000|    0.011994|
|         106|   -9.510731|  -11.768117|    0.824000|    0.011994|
|         107|   -9.514487|  -11.773943|    0.824000|    0.011994|
|         108|   -9.518072|  -11.779784|    0.824000|    0.011994|
|         109|   -9.521374|  -11.785642|    0.824000|    0.011994|
|         110|   -9.524289|  -11.791518|    0.824000|    0.011994|
|         111|   -9.526718|  -11.797411|    0.824000|    0.011994|
|         112|   -9.528579|  -11.803319|    0.824000|    0.011994|
|         113|   -9.529809|  -11.809233|    0.824000|    0.011994|
|         114|   -9.530372|  -11.815137|    0.824000|    0.011994|
|         115|   -9.530257|  -11.821011|    0.824000|    0.011994|
|         116|   -9.529486|  -11.826831|    0.824000|    0.011994|
|         117|   -9.528105|  -11.832566|    0.824000|    0.011994|
|         118|   -9.526181|  -11.838189|    0.824000|    0.011994|
|         119|   -9.523804|  -11.843673|    0.824000|    0.011994|
|         120|   -9.521080|  -11.848999|    0.824000|    0.011994|
|         121|   -9.518109|  -11.854156|    0.824000|    0.011994|
|         122|   -9.515004|  -11.859144|    0.824000|    0.011994|
|         123|   -9.511860|  -11.863979|    0.824000|    0.011994|
|         124|   -9.508768|  -11.868686|    0.824000|    0.011994|
|         125|   -9.505804|  -11.873306|    0.824000|    0.011994|
|         126|   -9.503023|  -11.877886|    0.824000|    0.011994|
|         127|   -9.500469|  -11.882481|    0.824000|    0.011994|
|         128|   -9.498163|  -11.887147|    0.824000|    0.011994|
|         129|   -9.496111|  -11.891936|    0.824000|    0.011994|
|         130|   -9.494295|  -11.896896|    0.824000|    0.011994|
|         131|   -9.492691|  -11.902060|    0.824000|    0.011994|
|         132|   -9.491258|  -11.907449|    0.824000|    0.011994|
|         133|   -9.489953|  -11.913068|    0.824000|    0.011994|
|         134|   -9.488714|  -11.918901|    0.824000|    0.011994|
|         135|   -9.487495|  -11.924918|    0.824000|    0.011994|
|         136|   -9.486237|  -11.931066|    0.824000|    0.011994|
|         137|   -9.484889|  -11.937282|    0.824000|    0.011994|
|         138|   -9.483415|  -11.943486|    0.824000|    0.011994|
|         139|   -9.481782|  -11.949594|    0.824000|    0.011994|
|         140|   -9.479966|  -11.955515|    0.824000|    0.011994|
|         141|   -9.477958|  -11.961162|    0.824000|    0.011994|
|         142|   -9.475760|  -11.966458|    0.824000|    0.011994|
|         143|   -9.473377|  -11.971338|    0.824000|    0.011994|
|         144|   -9.470825|  -11.975757|    0.824000|    0.011994|
|         145|   -9.468129|  -11.979692|    0.824000|    0.011994|
|         146|   -9.465308|  -11.983146|    0.824000|    0.011994|
|         147|   -9.462393|  -11.986143|    0.824000|    0.011994|
|         148|   -9.459410|  -11.988729|    0.824000|    0.011994|
|         149|   -9.456381|  -11.990969|    0.824000|    0.011994|
|         150|   -9.453335|  -11.992936|    0.824000|    0.011994|
|         151|   -9.450289|  -11.994711|    0.824000|    0.011994|
|         152|   -9.447260|  -11.996375|    0.824000|    0.011994|
|         153|   -9.444270|  -11.998000|    0.824000|    0.011994|
|         154|   -9.441332|  -11.999648|    0.824000|    0.011994|
|         155|   -9.438458|  -12.001368|    0.824000|    0.011994|
|         156|   -9.435664|  -12.003187|    0.824000|    0.011994|
|         157|   -9.432961|  -12.005116|    0.824000|    0.011994|
|         158|   -9.430361|  -12.007145|    0.824000|    0.011994|
|         159|   -9.427878|  -12.009249|    0.824000|    0.011994|
|         160|   -9.425520|  -12.011383|    0.824000|    0.011994|
|         161|   -9.423304|  -12.013496|    0.824000|    0.011994|
|         162|   -9.421241|  -12.015524|    0.824000|    0.011994|
|         163|   -9.419341|  -12.017407|    0.824000|    0.011994|
|         164|   -9.417609|  -12.019084|    0.824000|    0.011994|
|         165|   -9.416059|  -12.020509|    0.824000|    0.011994|
|         166|   -9.414692|  -12.021647|    0.824000|    0.011994|
|         167|   -9.413506|  -12.022481|    0.824000|    0.011994|
|         168|   -9.412504|  -12.023018|    0.824000|    0.011994|
|         169|   -9.411683|  -12.023283|    0.824000|    0.011994|
|         170|   -9.411035|  -12.023321|    0.824000|    0.011994|
|         171|   -9.410548|  -12.023194|    0.824000|    0.011994|
|         172|   -9.410211|  -12.022974|    0.824000|    0.011994|
|         173|   -9.410008|  -12.022742|    0.824000|    0.011994|
|         174|   -9.409927|  -12.022579|    0.824000|    0.011994|
|         175|   -9.409950|  -12.022566|    0.824000|    0.011994|
|         176|   -9.410064|  -12.022774|    0.824000|    0.011994|
|         177|   -9.410258|  -12.023264|    0.824000|    0.011994|
|         178|   -9.410521|  -12.024084|    0.824000|    0.011994|
|         179|   -9.410851|  -12.025269|    0.824000|    0.011994|
|         180|   -9.411240|  -12.026837|    0.824000|    0.011994|
|         181|   -9.411699|  -12.028790|    0.824000|    0.011994|
|         182|   -9.412238|  -12.031116|    0.824000|    0.011994|
|         183|   -9.412867|  -12.033790|    0.824000|    0.011994|
|         184|   -9.413612|  -12.036774|    0.824000|    0.011994|
|         185|   -9.414490|  -12.040021|    0.824000|    0.011994|
|         186|   -9.415531|  -12.043475|    0.824000|    0.011994|
|         187|   -9.416767|  -12.047076|    0.824000|    0.011994|
|         188|   -9.418224|  -12.050764|    0.824000|    0.011994|
|         189|   -9.419930|  -12.054478|    0.824000|    0.011994|
|         190|   -9.421909|  -12.058163|    0.824000|    0.011994|
|         191|   -9.424184|  -12.061769|    0.824000|    0.011994|
|         192|   -9.426771|  -12.065260|    0.824000|    0.011994|
|         193|   -9.429669|  -12.068607|    0.824000|    0.011994|
|         194|   -9.432878|  -12.071795|    0.824000|    0.011994|
|         195|   -9.436391|  -12.074823|    0.824000|    0.011994|
|         196|   -9.440180|  -12.077703|    0.824000|    0.011994|
|         197|   -9.444212|  -12.080456|    0.824000|    0.011994|
|         198|   -9.448442|  -12.083117|    0.824000|    0.011994|
|         199|   -9.452810|  -12.085726|    0.824000|    0.011994|
|         200|   -9.457248|  -12.088329|    0.824000|    0.011994|
|         201|   -9.461694|  -12.090976|    0.824000|    0.011994|
|         202|   -9.466052|  -12.093716|    0.824000|    0.011994|
|         203|   -9.470247|  -12.096598|    0.824000|    0.011994|
|         204|   -9.474192|  -12.099667|    0.824000|    0.011994|
|         205|   -9.477824|  -12.102959|    0.824000|    0.011994|
|         206|   -9.481068|  -12.106507|    0.824000|    0.011994|
|         207|   -9.483873|  -12.110333|    0.824000|    0.011994|
|         208|   -9.486218|  -12.114448|    0.824000|    0.011994|
|         209|   -9.488086|  -12.118854|    0.824000|    0.011994|
|         210|   -9.489488|  -12.123542|    0.824000|    0.011994|
|         211|   -9.490466|  -12.128490|    0.824000|    0.011994|
|         212|   -9.491078|  -12.133666|    0.824000|    0.011994|
|         213|   -9.491400|  -12.139027|    0.824000|    0.011994|
|         214|   -9.491522|  -12.144519|    0.824000|    0.011994|
|         215|   -9.491549|  -12.150079|    0.824000|    0.011994|
|         216|   -9.491593|  -12.155638|    0.824000|    0.011994|
|         217|   -9.491767|  -12.161123|    0.824000|    0.011994|
|         218|   -9.492178|  -12.166456|    0.824000|    0.011994|
|         219|   -9.492934|  -12.171565|    0.824000|    0.011994|
|         220|   -9.494137|  -12.176381|    0.824000|    0.011994|
|         221|   -9.495880|  -12.180846|    0.824000|    0.011994|
|         222|   -9.498248|  -12.184913|    0.824000|    0.011994|
|         223|   -9.501312|  -12.188552|    0.824000|    0.011994|
|         224|   -9.505130|  -12.191751|    0.824000|    0.011994|
|         225|   -9.509755|  -12.194515|    0.824000|    0.011994|
|         226|   -9.515223|  -12.196870|    0.824000|    0.011994|
|         227|   -9.521574|  -12.198859|    0.824000|    0.011994|
|         228|   -9.528821|  -12.200539|    0.824000|    0.011994|
|         229|   -9.536971|  -12.201980|    0.824000|    0.011994|
|         230|   -9.546024|  -12.203259|    0.824000|    0.011994|
|         231|   -9.555969|  -12.204460|    0.824000|    0.011994|
|         232|   -9.566768|  -12.205664|    0.824000|    0.011994|
|         233|   -9.578389|  -12.206954|    0.824000|    0.011994|
|         234|   -9.590768|  -12.208403|    0.824000|    0.011994|
|         235|   -9.603846|  -12.210080|    0.824000|    0.011994|
|         236|   -9.617539|  -12.212042|    0.824000|    0.011994|
|         237|   -9.631742|  -12.214336|    0.824000|    0.011994|
|         238|   -9.646323|  -12.216995|    0.824000|    0.011994|
|         239|   -9.661153|  -12.220043|    0.824000|    0.011994|
|         240|   -9.676080|  -12.223489|    0.824000|    0.011994|
|         241|   -9.690923|  -12.227326|    0.824000|    0.011994|
|         242|   -9.705495|  -12.231540|    0.824000|    0.011994|
|         243|   -9.719616|  -12.236100|    0.824000|    0.011994|
|         244|   -9.733060|  -12.240965|    0.824000|    0.011994|
|         245|   -9.745671|  -12.246084|    0.824000|    0.011994|
|         246|   -9.757275|  -12.251395|    0.824000|    0.011994|
|         247|   -9.767718|  -12.256829|    0.824000|    0.011994|
|         248|   -9.776912|  -12.262314|    0.824000|    0.011994|
|         249|   -9.784764|  -12.267772|    0.824000|    0.011994|
|         250|   -9.791276|  -12.273129|    0.824000|    0.011994|
|         251|   -9.796476|  -12.278313|    0.824000|    0.011994|
|         252|   -9.800418|  -12.283260|    0.824000|    0.011994|
|         253|   -9.803216|  -12.287917|    0.824000|    0.011994|
|         254|   -9.804983|  -12.292245|    0.824000|    0.011994|
|         255|   -9.805881|  -12.296219|    0.824000|    0.011994|
|         256|   -9.806054|  -12.299832|    0.824000|    0.011994|
|         257|   -9.805650|  -12.303093|    0.824000|    0.011994|
|         258|   -9.804824|  -12.306024|    0.824000|    0.011994|
|         259|   -9.803688|  -12.308663|    0.824000|    0.011994|
|         260|   -9.802395|  -12.311055|    0.824000|    0.011994|
|         261|   -9.801025|  -12.313253|    0.824000|    0.011994|
|         262|   -9.799675|  -12.315310|    0.824000|    0.011994|
|         263|   -9.798434|  -12.317277|    0.824000|    0.011994|
|         264|   -9.797356|  -12.319201|    0.824000|    0.011994|
|         265|   -9.796499|  -12.321117|    0.824000|    0.011994|
|         266|   -9.795913|  -12.323050|    0.824000|    0.011994|
|         267|   -9.795626|  -12.325010|    0.824000|    0.011994|
|         268|   -9.795668|  -12.326994|    0.824000|    0.011994|
|         269|   -9.796058|  -12.328983|    0.824000|    0.011994|
|         270|   -9.796819|  -12.330940|    0.824000|    0.011994|
|         271|   -9.797948|  -12.332821|    0.824000|    0.011994|
|         272|   -9.799473|  -12.334565|    0.824000|    0.011994|
|         273|   -9.801392|  -12.336109|    0.824000|    0.011994|
|         274|   -9.803698|  -12.337382|    0.824000|    0.011994|
|         275|   -9.806394|  -12.338317|    0.824000|    0.011994|
|         276|   -9.809484|  -12.338852|    0.824000|    0.011994|
|         277|   -9.812953|  -12.338939|    0.824000|    0.011994|
|         278|   -9.816793|  -12.338542|    0.824000|    0.011994|
|         279|   -9.821006|  -12.337646|    0.824000|    0.011994|
|         280|   -9.825560|  -12.336257|    0.824000|    0.011994|
|         281|   -9.830446|  -12.334401|    0.824000|    0.011994|
|         282|   -9.835655|  -12.332127|    0.824000|    0.011994|
|         283|   -9.841156|  -12.329501|    0.824000|    0.011994|
|         284|   -9.846937|  -12.326603|    0.824000|    0.011994|
|         285|   -9.852945|  -12.323524|    0.824000|    0.011994|
|         286|   -9.859186|  -12.320360|    0.824000|    0.011994|
|         287|   -9.865604|  -12.317208|    0.824000|    0.011994|
|         288|   -9.872179|  -12.314166|    0.824000|    0.011994|
|         289|   -9.878870|  -12.311323|    0.824000|    0.011994|
|         290|   -9.885642|  -12.308760|    0.824000|    0.011994|
|         291|   -9.892469|  -12.306551|    0.824000|    0.011994|
|         292|   -9.899301|  -12.304757|    0.824000|    0.011994|
|         293|   -9.906102|  -12.303426|    0.824000|    0.011994|
|         294|   -9.912846|  -12.302600|    0.824000|    0.011994|
|         295|   -9.919493|  -12.302303|    0.824000|    0.011994|
|         296|   -9.926013|  -12.302552|    0.824000|    0.011994|
|         297|   -9.932389|  -12.303354|    0.824000|    0.011994|
|         298|   -9.938584|  -12.304703|    0.824000|    0.011994|
|         299|   -9.944582|  -12.306588|    0.824000|    0.011994|
|         300|   -9.950363|  -12.308990|    0.824000|    0.011994|
|         301|   -9.955920|  -12.311881|    0.824000|    0.011994|
|         302|   -9.961261|  -12.315228|    0.824000|    0.011994|
|         303|   -9.966366|  -12.318994|    0.824000|    0.011994|
|         304|   -9.971216|  -12.323139|    0.824000|    0.011994|
|         305|   -9.975830|  -12.327619|    0.824000|    0.011994|
|         306|   -9.980173|  -12.332389|    0.824000|    0.011994|
|         307|   -9.984300|  -12.337405|    0.824000|    0.011994|
|         308|   -9.988155|  -12.342623|    0.824000|    0.011994|
|         309|   -9.991752|  -12.348000|    0.824000|    0.011994|
|         310|   -9.995098|  -12.353500|    0.824000|    0.011994|
|         311|   -9.998183|  -12.359087|    0.824000|    0.011994|
|         312|  -10.000991|  -12.364733|    0.824000|    0.011994|
|         313|  -10.003517|  -12.370413|    0.824000|    0.011994|
|         314|  -10.005752|  -12.376111|    0.824000|    0.011994|
|         315|  -10.007701|  -12.381815|    0.824000|    0.011994|
|         316|  -10.009322|  -12.387519|    0.824000|    0.011994|
|         317|  -10.010631|  -12.393224|    0.824000|    0.011994|
|         318|  -10.011633|  -12.398936|    0.824000|    0.011994|
|         319|  -10.012295|  -12.404666|    0.824000|    0.011994|
|         320|  -10.012648|  -12.410427|    0.824000|    0.011994|
|         321|  -10.012675|  -12.416238|    0.824000|    0.011994|
|         322|  -10.012394|  -12.422120|    0.824000|    0.011994|
|         323|  -10.011810|  -12.428093|    0.824000|    0.011994|
|         324|  -10.010942|  -12.434179|    0.824000|    0.011994|
|         325|  -10.009807|  -12.440399|    0.824000|    0.011994|
|         326|  -10.008433|  -12.446773|    0.824000|    0.011994|
|         327|  -10.006851|  -12.453319|    0.824000|    0.011994|
|         328|  -10.005090|  -12.460050|    0.824000|    0.011994|
|         329|  -10.003163|  -12.466978|    0.824000|    0.011994|
|         330|  -10.001121|  -12.474109|    0.824000|    0.011994|
|         331|   -9.998986|  -12.481443|    0.824000|    0.011994|
|         332|   -9.996805|  -12.488976|    0.824000|    0.011994|
|         333|   -9.994603|  -12.496695|    0.824000|    0.011994|
|         334|   -9.992422|  -12.504583|    0.824000|    0.011994|
|         335|   -9.990287|  -12.512613|    0.824000|    0.011994|
|         336|   -9.988229|  -12.520753|    0.824000|    0.011994|
|         337|   -9.986269|  -12.528961|    0.824000|    0.011994|
|         338|   -9.984448|  -12.537188|    0.824000|    0.011994|
|         339|   -9.982797|  -12.545378|    0.824000|    0.011994|
|         340|   -9.981320|  -12.553470|    0.824000|    0.011994|
|         341|   -9.980054|  -12.561397|    0.824000|    0.011994|
|         342|   -9.979021|  -12.569089|    0.824000|    0.011994|
|         343|   -9.978232|  -12.576475|    0.824000|    0.011994|
|         344|   -9.977713|  -12.583487|    0.824000|    0.011994|
|         345|   -9.977468|  -12.590059|    0.824000|    0.011994|
|         346|   -9.977530|  -12.596134|    0.824000|    0.011994|
|         347|   -9.977885|  -12.601666|    0.824000|    0.011994|
|         348|   -9.978572|  -12.606621|    0.824000|    0.011994|
|         349|   -9.979569|  -12.610979|    0.824000|    0.011994|
|         350|   -9.980930|  -12.614737|    0.824000|    0.011994|
|         351|   -9.982619|  -12.617909|    0.824000|    0.011994|
|         352|   -9.984664|  -12.620521|    0.824000|    0.011994|
|         353|   -9.987057|  -12.622617|    0.824000|    0.011994|
|         354|   -9.989820|  -12.624252|    0.824000|    0.011994|
|         355|   -9.992938|  -12.625487|    0.824000|    0.011994|
|         356|   -9.996406|  -12.626392|    0.824000|    0.011994|
|         357|  -10.000253|  -12.627039|    0.824000|    0.011994|
|         358|  -10.004427|  -12.627501|    0.824000|    0.011994|
|         359|  -10.008949|  -12.627847|    0.824000|    0.011994|
|         360|  -10.013811|  -12.628143|    0.824000|    0.011994|
|         361|  -10.018961|  -12.628448|    0.824000|    0.011994|
|         362|  -10.024446|  -12.628815|    0.824000|    0.011994|
|         363|  -10.030209|  -12.629288|    0.824000|    0.011994|
|         364|  -10.036214|  -12.629901|    0.824000|    0.011994|
|         365|  -10.042444|  -12.630682|    0.824000|    0.011994|
|         366|  -10.048875|  -12.631649|    0.824000|    0.011994|
|         367|  -10.055466|  -12.632811|    0.824000|    0.011994|
|         368|  -10.062164|  -12.634169|    0.824000|    0.011994|
|         369|  -10.068937|  -12.635716|    0.824000|    0.011994|
|         370|  -10.075740|  -12.637440|    0.824000|    0.011994|
|         371|  -10.082489|  -12.639320|    0.824000|    0.011994|
|         372|  -10.089166|  -12.641330|    0.824000|    0.011994|
|         373|  -10.095685|  -12.643439|    0.824000|    0.011994|
|         374|  -10.101992|  -12.645612|    0.824000|    0.011994|
|         375|  -10.108054|  -12.647811|    0.824000|    0.011994|
|         376|  -10.113771|  -12.649995|    0.824000|    0.011994|
|         377|  -10.119117|  -12.652123|    0.824000|    0.011994|
|         378|  -10.124049|  -12.654150|    0.824000|    0.011994|
|         379|  -10.128516|  -12.656037|    0.824000|    0.011994|
|         380|  -10.132472|  -12.657745|    0.824000|    0.011994|
|         381|  -10.135911|  -12.659236|    0.824000|    0.011994|
|         382|  -10.138814|  -12.660479|    0.824000|    0.011994|
|         383|  -10.141183|  -12.661445|    0.824000|    0.011994|
|         384|  -10.143035|  -12.662116|    0.824000|    0.011994|
|         385|  -10.144381|  -12.662472|    0.824000|    0.011994|
|         386|  -10.145252|  -12.662507|    0.824000|    0.011994|
|         387|  -10.145677|  -12.662218|    0.824000|    0.011994|
|         388|  -10.145716|  -12.661607|    0.824000|    0.011994|
|         389|  -10.145407|  -12.660685|    0.824000|    0.011994|
|         390|  -10.144793|  -12.659465|    0.824000|    0.011994|
|         391|  -10.143931|  -12.657964|    0.824000|    0.011994|
|         392|  -10.142877|  -12.656207|    0.824000|    0.011994|
|         393|  -10.141667|  -12.654215|    0.824000|    0.011994|
|         394|  -10.140361|  -12.652015|    0.824000|    0.011994|
|         395|  -10.138991|  -12.649633|    0.824000|    0.011994|
|         396|  -10.137593|  -12.647093|    0.824000|    0.011994|
|         397|  -10.136210|  -12.644422|    0.824000|    0.011994|
|         398|  -10.134862|  -12.641640|    0.824000|    0.011994|
|         399|  -10.133589|  -12.638769|    0.824000|    0.011994|
|         400|  -10.132397|  -12.635829|    0.824000|    0.011994|
|         401|  -10.131318|  -12.632834|    0.824000|    0.011994|
|         402|  -10.130343|  -12.629797|    0.824000|    0.011994|
|         403|  -10.129507|  -12.626731|    0.824000|    0.011994|
|         404|  -10.128803|  -12.623644|    0.824000|    0.011994|
|         405|  -10.128241|  -12.620543|    0.824000|    0.011994|
|         406|  -10.127825|  -12.617434|    0.824000|    0.011994|
|         407|  -10.127559|  -12.614322|    0.824000|    0.011994|
|         408|  -10.127438|  -12.611210|    0.824000|    0.011994|
|         409|  -10.127483|  -12.608102|    0.824000|    0.011994|
|         410|  -10.127683|  -12.605002|    0.824000|    0.011994|
|         411|  -10.128027|  -12.601916|    0.824000|    0.011994|
|         412|  -10.128544|  -12.598850|    0.824000|    0.011994|
|         413|  -10.129213|  -12.595809|    0.824000|    0.011994|
|         414|  -10.130046|  -12.592803|    0.824000|    0.011994|
|         415|  -10.131045|  -12.589843|    0.824000|    0.011994|
|         416|  -10.132211|  -12.586939|    0.824000|    0.011994|
|         417|  -10.133562|  -12.584105|    0.824000|    0.011994|
|         418|  -10.135075|  -12.581357|    0.824000|    0.011994|
|         419|  -10.136793|  -12.578709|    0.824000|    0.011994|
|         420|  -10.138685|  -12.576180|    0.824000|    0.011994|
|         421|  -10.140758|  -12.573785|    0.824000|    0.011994|
|         422|  -10.143036|  -12.571545|    0.824000|    0.011994|
|         423|  -10.145504|  -12.569475|    0.824000|    0.011994|
|         424|  -10.148182|  -12.567595|    0.824000|    0.011994|
|         425|  -10.151058|  -12.565920|    0.824000|    0.011994|
|         426|  -10.154128|  -12.564468|    0.824000|    0.011994|
|         427|  -10.157381|  -12.563252|    0.824000|    0.011994|
|         428|  -10.160822|  -12.562286|    0.824000|    0.011994|
|         429|  -10.164412|  -12.561582|    0.824000|    0.011994|
|         430|  -10.168172|  -12.561150|    0.824000|    0.011994|
|         431|  -10.172072|  -12.560998|    0.824000|    0.011994|
|         432|  -10.176096|  -12.561130|    0.824000|    0.011994|
|         433|  -10.180204|  -12.561551|    0.824000|    0.011994|
|         434|  -10.184376|  -12.562263|    0.824000|    0.011994|
|         435|  -10.188579|  -12.563264|    0.824000|    0.011994|
|         436|  -10.192791|  -12.564552|    0.824000|    0.011994|
|         437|  -10.196963|  -12.566119|    0.824000|    0.011994|
|         438|  -10.201042|  -12.567960|    0.824000|    0.011994|
|         439|  -10.205033|  -12.570064|    0.824000|    0.011994|
|         440|  -10.208826|  -12.572420|    0.824000|    0.011994|
|         441|  -10.212425|  -12.575012|    0.824000|    0.011994|
|         442|  -10.215810|  -12.577826|    0.824000|    0.011994|
|         443|  -10.218911|  -12.580844|    0.824000|    0.011994|
|         444|  -10.221692|  -12.584045|    0.824000|    0.011994|
|         445|  -10.224102|  -12.587410|    0.824000|    0.011994|
|         446|  -10.226172|  -12.590915|    0.824000|    0.011994|
|         447|  -10.227829|  -12.594538|    0.824000|    0.011994|
|         448|  -10.229116|  -12.598254|    0.824000|    0.011994|
|         449|  -10.230001|  -12.602039|    0.824000|    0.011994|
|         450|  -10.230506|  -12.605867|    0.824000|    0.011994|
|         451|  -10.230605|  -12.609713|    0.824000|    0.011994|
|         452|  -10.230346|  -12.613553|    0.824000|    0.011994|
|         453|  -10.229749|  -12.617363|    0.824000|    0.011994|
|         454|  -10.228877|  -12.621119|    0.824000|    0.011994|
|         455|  -10.227724|  -12.624802|    0.824000|    0.011994|
|         456|  -10.226346|  -12.628391|    0.824000|    0.011994|
|         457|  -10.224776|  -12.631870|    0.824000|    0.011994|
|         458|  -10.223097|  -12.635224|    0.824000|    0.011994|
|         459|  -10.221316|  -12.638439|    0.824000|    0.011994|
|         460|  -10.219473|  -12.641508|    0.824000|    0.011994|
|         461|  -10.217631|  -12.644424|    0.824000|    0.011994|
|         462|  -10.215834|  -12.647184|    0.824000|    0.011994|
|         463|  -10.214121|  -12.649787|    0.824000|    0.011994|
|         464|  -10.212519|  -12.652235|    0.824000|    0.011994|
|         465|  -10.211061|  -12.654535|    0.824000|    0.011994|
|         466|  -10.209785|  -12.656693|    0.824000|    0.011994|
|         467|  -10.208703|  -12.658719|    0.824000|    0.011994|
|         468|  -10.207875|  -12.660625|    0.824000|    0.011994|
|         469|  -10.207285|  -12.662424|    0.824000|    0.011994|
|         470|  -10.206989|  -12.664131|    0.824000|    0.011994|
|         471|  -10.206968|  -12.665761|    0.824000|    0.011994|
|         472|  -10.207237|  -12.667330|    0.824000|    0.011994|
|         473|  -10.207833|  -12.668856|    0.824000|    0.011994|
|         474|  -10.208773|  -12.670354|    0.824000|    0.011994|
|         475|  -10.210025|  -12.671841|    0.824000|    0.011994|
|         476|  -10.211594|  -12.673332|    0.824000|    0.011994|
|         477|  -10.213498|  -12.674845|    0.824000|    0.011994|
|         478|  -10.215716|  -12.676394|    0.824000|    0.011994|
|         479|  -10.218263|  -12.677993|    0.824000|    0.011994|
|         480|  -10.221165|  -12.679656|    0.824000|    0.011994|
|         481|  -10.224369|  -12.681393|    0.824000|    0.011994|
|         482|  -10.227875|  -12.683218|    0.824000|    0.011994|
|         483|  -10.231665|  -12.685139|    0.824000|    0.011994|
|         484|  -10.235730|  -12.687166|    0.824000|    0.011994|
|         485|  -10.240032|  -12.689307|    0.824000|    0.011994|
|         486|  -10.244561|  -12.691568|    0.824000|    0.011994|
|         487|  -10.249280|  -12.693953|    0.824000|    0.011994|
|         488|  -10.254163|  -12.696468|    0.824000|    0.011994|
|         489|  -10.259194|  -12.699112|    0.824000|    0.011994|
|         490|  -10.264318|  -12.701890|    0.824000|    0.011994|
|         491|  -10.269497|  -12.704797|    0.824000|    0.011994|
|         492|  -10.274682|  -12.707833|    0.824000|    0.011994|
|         493|  -10.279835|  -12.710994|    0.824000|    0.011994|
|         494|  -10.284923|  -12.714273|    0.824000|    0.011994|
|         495|  -10.289889|  -12.717663|    0.824000|    0.011994|
|         496|  -10.294698|  -12.721156|    0.824000|    0.011994|
|         497|  -10.299235|  -12.724741|    0.824000|    0.011994|
|         498|  -10.303568|  -12.728405|    0.824000|    0.011994|
|         499|  -10.307536|  -12.732132|    0.824000|    0.011994|
|         500|  -10.311181|  -12.735911|    0.824000|    0.011994|
|         501|  -10.314471|  -12.739719|    0.824000|    0.011994|
|         502|  -10.317327|  -12.743542|    0.824000|    0.011994|
|         503|  -10.319757|  -12.747358|    0.824000|    0.011994|
|         504|  -10.321745|  -12.751146|    0.824000|    0.011994|
|         505|  -10.323286|  -12.754887|    0.824000|    0.011994|
|         506|  -10.324407|  -12.758556|    0.824000|    0.011994|
|         507|  -10.325095|  -12.762132|    0.824000|    0.011994|
|         508|  -10.325357|  -12.765593|    0.824000|    0.011994|
|         509|  -10.325231|  -12.768918|    0.824000|    0.011994|
|         510|  -10.324774|  -12.772083|    0.824000|    0.011994|
|         511|  -10.324006|  -12.775072|    0.824000|    0.011994|
|         512|  -10.322958|  -12.777863|    0.824000|    0.011994|
|         513|  -10.321669|  -12.780441|    0.824000|    0.011994|
|         514|  -10.320237|  -12.782790|    0.824000|    0.011994|
|         515|  -10.318636|  -12.784899|    0.824000|    0.011994|
|         516|  -10.316946|  -12.786757|    0.824000|    0.011994|
|         517|  -10.315208|  -12.788354|    0.824000|    0.011994|
|         518|  -10.313473|  -12.789688|    0.824000|    0.011994|
|         519|  -10.311774|  -12.790752|    0.824000|    0.011994|
|         520|  -10.310145|  -12.791549|    0.824000|    0.011994|
|         521|  -10.308609|  -12.792080|    0.824000|    0.011994|
|         522|  -10.307238|  -12.792348|    0.824000|    0.011994|
|         523|  -10.306010|  -12.792362|    0.824000|    0.011994|
|         524|  -10.304971|  -12.792129|    0.824000|    0.011994|
|         525|  -10.304162|  -12.791661|    0.824000|    0.011994|
|         526|  -10.303583|  -12.790968|    0.824000|    0.011994|
|         527|  -10.303263|  -12.790064|    0.824000|    0.011994|
|         528|  -10.303188|  -12.788965|    0.824000|    0.011994|
|         529|  -10.303421|  -12.787686|    0.824000|    0.011994|
|         530|  -10.303916|  -12.786243|    0.824000|    0.011994|
|         531|  -10.304709|  -12.784655|    0.824000|    0.011994|
|         532|  -10.305832|  -12.782939|    0.824000|    0.011994|
|         533|  -10.307223|  -12.781113|    0.824000|    0.011994|
|         534|  -10.308938|  -12.779195|    0.824000|    0.011994|
|         535|  -10.310973|  -12.777206|    0.824000|    0.011994|
|         536|  -10.313285|  -12.775162|    0.824000|    0.011994|
|         537|  -10.315893|  -12.773083|    0.824000|    0.011994|
|         538|  -10.318836|  -12.770988|    0.824000|    0.011994|
|         539|  -10.322002|  -12.768893|    0.824000|    0.011994|
|         540|  -10.325473|  -12.766817|    0.824000|    0.011994|
|         541|  -10.329169|  -12.764776|    0.824000|    0.011994|
|         542|  -10.333121|  -12.762786|    0.824000|    0.011994|
|         543|  -10.337275|  -12.760862|    0.824000|    0.011994|
|         544|  -10.341645|  -12.759019|    0.824000|    0.011994|
|         545|  -10.346178|  -12.757271|    0.824000|    0.011994|
|         546|  -10.350843|  -12.755629|    0.824000|    0.011994|
|         547|  -10.355591|  -12.754104|    0.824000|    0.011994|
|         548|  -10.360414|  -12.752707|    0.824000|    0.011994|
|         549|  -10.365265|  -12.751446|    0.824000|    0.011994|
|         550|  -10.370156|  -12.750328|    0.824000|    0.011994|
|         551|  -10.374967|  -12.749360|    0.824000|    0.011994|
|         552|  -10.379666|  -12.748547|    0.824000|    0.011994|
|         553|  -10.384218|  -12.747892|    0.824000|    0.011994|
|         554|  -10.388608|  -12.747397|    0.824000|    0.011994|
|         555|  -10.392795|  -12.747064|    0.824000|    0.011994|
|         556|  -10.396678|  -12.746891|    0.824000|    0.011994|
|         557|  -10.400242|  -12.746878|    0.824000|    0.011994|
|         558|  -10.403492|  -12.747022|    0.824000|    0.011994|
|         559|  -10.406322|  -12.747319|    0.824000|    0.011994|
|         560|  -10.408746|  -12.747764|    0.824000|    0.011994|
|         561|  -10.410776|  -12.748352|    0.824000|    0.011994|
|         562|  -10.412362|  -12.749076|    0.824000|    0.011994|
|         563|  -10.413561|  -12.749928|    0.824000|    0.011994|
|         564|  -10.414332|  -12.750902|    0.824000|    0.011994|
|         565|  -10.414672|  -12.751987|    0.824000|    0.011994|
|         566|  -10.414631|  -12.753176|    0.824000|    0.011994|
|         567|  -10.414272|  -12.754459|    0.824000|    0.011994|
|         568|  -10.413560|  -12.755828|    0.824000|    0.011994|
|         569|  -10.412628|  -12.757272|    0.824000|    0.011994|
|         570|  -10.411410|  -12.758783|    0.824000|    0.011994|
|         571|  -10.410030|  -12.760352|    0.824000|    0.011994|
|         572|  -10.408519|  -12.761971|    0.824000|    0.011994|
|         573|  -10.406917|  -12.763632|    0.824000|    0.011994|
|         574|  -10.405307|  -12.765328|    0.824000|    0.011994|
|         575|  -10.403678|  -12.767053|    0.824000|    0.011994|
|         576|  -10.402129|  -12.768802|    0.824000|    0.011994|
|         577|  -10.400658|  -12.770570|    0.824000|    0.011994|
|         578|  -10.399346|  -12.772355|    0.824000|    0.011994|
|         579|  -10.398194|  -12.774154|    0.824000|    0.011994|
|         580|  -10.397239|  -12.775968|    0.824000|    0.011994|
|         581|  -10.396535|  -12.777794|    0.824000|    0.011994|
|         582|  -10.396101|  -12.779637|    0.824000|    0.011994|
|         583|  -10.395952|  -12.781498|    0.824000|    0.011994|
|         584|  -10.396112|  -12.783380|    0.824000|    0.011994|
|         585|  -10.396568|  -12.785288|    0.824000|    0.011994|
|         586|  -10.397414|  -12.787227|    0.824000|    0.011994|
|         587|  -10.398583|  -12.789205|    0.824000|    0.011994|
|         588|  -10.400167|  -12.791227|    0.824000|    0.011994|
|         589|  -10.402095|  -12.793302|    0.824000|    0.011994|
|         590|  -10.404355|  -12.795437|    0.824000|    0.011994|
|         591|  -10.406981|  -12.797637|    0.824000|    0.011994|
|         592|  -10.410022|  -12.799916|    0.824000|    0.011994|
|         593|  -10.413431|  -12.802277|    0.824000|    0.011994|
|         594|  -10.417183|  -12.804730|    0.824000|    0.011994|
|         595|  -10.421288|  -12.807282|    0.824000|    0.011994|
|         596|  -10.425738|  -12.809941|    0.824000|    0.011994|
|         597|  -10.430541|  -12.812713|    0.824000|    0.011994|
|         598|  -10.435603|  -12.815605|    0.824000|    0.011994|
|         599|  -10.440964|  -12.818623|    0.824000|    0.011994|
|         600|  -10.446583|  -12.821772|    0.824000|    0.011994|
|         601|  -10.452466|  -12.825057|    0.824000|    0.011994|
|         602|  -10.458479|  -12.828479|    0.824000|    0.011994|
|         603|  -10.464694|  -12.832043|    0.824000|    0.011994|
|         604|  -10.471076|  -12.835751|    0.824000|    0.011994|
|         605|  -10.477503|  -12.839604|    0.824000|    0.011994|
|         606|  -10.483901|  -12.843603|    0.824000|    0.011994|
|         607|  -10.490334|  -12.847749|    0.824000|    0.011994|
|         608|  -10.496708|  -12.852039|    0.824000|    0.011994|
|         609|  -10.502987|  -12.856471|    0.824000|    0.011994|
|         610|  -10.509013|  -12.861044|    0.824000|    0.011994|
|         611|  -10.514886|  -12.865757|    0.824000|    0.011994|
|         612|  -10.520427|  -12.870603|    0.824000|    0.011994|
|         613|  -10.525663|  -12.875580|    0.824000|    0.011994|
|         614|  -10.530494|  -12.880681|    0.824000|    0.011994|
|         615|  -10.534968|  -12.885904|    0.824000|    0.011994|
|         616|  -10.538915|  -12.891240|    0.824000|    0.011994|
|         617|  -10.542450|  -12.896685|    0.824000|    0.011994|
|         618|  -10.545412|  -12.902234|    0.824000|    0.011994|
|         619|  -10.547912|  -12.907878|    0.824000|    0.011994|
|         620|  -10.549864|  -12.913607|    0.824000|    0.011994|
|         621|  -10.551355|  -12.919419|    0.824000|    0.011994|
|         622|  -10.552347|  -12.925302|    0.824000|    0.011994|
|         623|  -10.552906|  -12.931250|    0.824000|    0.011994|
|         624|  -10.553055|  -12.937253|    0.824000|    0.011994|
|         625|  -10.552850|  -12.943302|    0.824000|    0.011994|
|         626|  -10.552329|  -12.949386|    0.824000|    0.011994|
|         627|  -10.551553|  -12.955499|    0.824000|    0.011994|
|         628|  -10.550547|  -12.961629|    0.824000|    0.011994|
|         629|  -10.549399|  -12.967765|    0.824000|    0.011994|
|         630|  -10.548156|  -12.973895|    0.824000|    0.011994|
|         631|  -10.546937|  -12.980011|    0.824000|    0.011994|
|         632|  -10.545632|  -12.986096|    0.824000|    0.011994|
|         633|  -10.544428|  -12.992140|    0.824000|    0.011994|
|         634|  -10.543361|  -12.998127|    0.824000|    0.011994|
|         635|  -10.542427|  -13.004047|    0.824000|    0.011994|
|         636|  -10.541670|  -13.009883|    0.824000|    0.011994|
|         637|  -10.541155|  -13.015619|    0.824000|    0.011994|
|         638|  -10.540953|  -13.021240|    0.824000|    0.011994|
|         639|  -10.540977|  -13.026732|    0.824000|    0.011994|
|         640|  -10.541351|  -13.032073|    0.824000|    0.011994|
|         641|  -10.542048|  -13.037253|    0.824000|    0.011994|
|         642|  -10.543077|  -13.042249|    0.824000|    0.011994|
|         643|  -10.544547|  -13.047048|    0.824000|    0.011994|
|         644|  -10.546429|  -13.051632|    0.824000|    0.011994|
|         645|  -10.548671|  -13.055984|    0.824000|    0.011994|
|         646|  -10.551347|  -13.060089|    0.824000|    0.011994|
|         647|  -10.554351|  -13.063935|    0.824000|    0.011994|
|         648|  -10.557936|  -13.067504|    0.824000|    0.011994|
|         649|  -10.561843|  -13.070790|    0.824000|    0.011994|
|         650|  -10.566217|  -13.073780|    0.824000|    0.011994|
|         651|  -10.570971|  -13.076469|    0.824000|    0.011994|
|         652|  -10.576073|  -13.078853|    0.824000|    0.011994|
|         653|  -10.581671|  -13.080929|    0.824000|    0.011994|
|         654|  -10.587657|  -13.082697|    0.824000|    0.011994|
|         655|  -10.594021|  -13.084163|    0.824000|    0.011994|
|         656|  -10.600698|  -13.085332|    0.824000|    0.011994|
|         657|  -10.607652|  -13.086214|    0.824000|    0.011994|
|         658|  -10.615015|  -13.086822|    0.824000|    0.011994|
|         659|  -10.622606|  -13.087169|    0.824000|    0.011994|
|         660|  -10.630415|  -13.087275|    0.824000|    0.011994|
|         661|  -10.638379|  -13.087158|    0.824000|    0.011994|
|         662|  -10.646464|  -13.086839|    0.824000|    0.011994|
|         663|  -10.654680|  -13.086341|    0.824000|    0.011994|
|         664|  -10.662893|  -13.085688|    0.824000|    0.011994|
|         665|  -10.671143|  -13.084905|    0.824000|    0.011994|
|         666|  -10.679319|  -13.084017|    0.824000|    0.011994|
|         667|  -10.687281|  -13.083048|    0.824000|    0.011994|
|         668|  -10.695097|  -13.082024|    0.824000|    0.011994|
|         669|  -10.702436|  -13.080970|    0.824000|    0.011994|
|         670|  -10.709587|  -13.079910|    0.824000|    0.011994|
|         671|  -10.716295|  -13.078865|    0.824000|    0.011994|
|         672|  -10.722456|  -13.077860|    0.824000|    0.011994|
|         673|  -10.728134|  -13.076915|    0.824000|    0.011994|
|         674|  -10.733300|  -13.076050|    0.824000|    0.011994|
|         675|  -10.737798|  -13.075281|    0.824000|    0.011994|
|         676|  -10.741782|  -13.074628|    0.824000|    0.011994|
|         677|  -10.745125|  -13.074106|    0.824000|    0.011994|
|         678|  -10.747807|  -13.073730|    0.824000|    0.011994|
|         679|  -10.749969|  -13.073511|    0.824000|    0.011994|
|         680|  -10.751585|  -13.073462|    0.824000|    0.011994|
|         681|  -10.752685|  -13.073592|    0.824000|    0.011994|
|         682|  -10.753419|  -13.073911|    0.824000|    0.011994|
|         683|  -10.753791|  -13.074426|    0.824000|    0.011994|
|         684|  -10.753716|  -13.075145|    0.824000|    0.011994|
|         685|  -10.753542|  -13.076071|    0.824000|    0.011994|
|         686|  -10.753106|  -13.077210|    0.824000|    0.011994|
|         687|  -10.752606|  -13.078566|    0.824000|    0.011994|
|         688|  -10.752055|  -13.080140|    0.824000|    0.011994|
|         689|  -10.751652|  -13.081934|    0.824000|    0.011994|
|         690|  -10.751237|  -13.083947|    0.824000|    0.011994|
|         691|  -10.750910|  -13.086181|    0.824000|    0.011994|
|         692|  -10.750838|  -13.088634|    0.824000|    0.011994|
|         693|  -10.750978|  -13.091303|    0.824000|    0.011994|
|         694|  -10.751464|  -13.094186|    0.824000|    0.011994|
|         695|  -10.752213|  -13.097280|    0.824000|    0.011994|
|         696|  -10.753326|  -13.100580|    0.824000|    0.011994|
|         697|  -10.754732|  -13.104081|    0.824000|    0.011994|
|         698|  -10.756533|  -13.107777|    0.824000|    0.011994|
|         699|  -10.758807|  -13.111663|    0.824000|    0.011994|
|         700|  -10.761437|  -13.115729|    0.824000|    0.011994|
|         701|  -10.764487|  -13.119969|    0.824000|    0.011994|
|         702|  -10.767932|  -13.124373|    0.824000|    0.011994|
|         703|  -10.771822|  -13.128932|    0.824000|    0.011994|
|         704|  -10.776147|  -13.133634|    0.824000|    0.011994|
|         705|  -10.780894|  -13.138469|    0.824000|    0.011994|
|         706|  -10.786159|  -13.143424|    0.824000|    0.011994|
|         707|  -10.791718|  -13.148485|    0.824000|    0.011994|
|         708|  -10.797647|  -13.153639|    0.824000|    0.011994|
|         709|  -10.803946|  -13.158870|    0.824000|    0.011994|
|         710|  -10.810547|  -13.164162|    0.824000|    0.011994|
|         711|  -10.817547|  -13.169500|    0.824000|    0.011994|
|         712|  -10.824732|  -13.174864|    0.824000|    0.011994|
|         713|  -10.832178|  -13.180239|    0.824000|    0.011994|
|         714|  -10.839716|  -13.185605|    0.824000|    0.011994|
|         715|  -10.847562|  -13.190939|    0.824000|    0.011994|
|         716|  -10.855201|  -13.196227|    0.824000|    0.011994|
|         717|  -10.863085|  -13.201449|    0.824000|    0.011994|
|         718|  -10.870749|  -13.206582|    0.824000|    0.011994|
|         719|  -10.878376|  -13.211612|    0.824000|    0.011994|
|         720|  -10.885793|  -13.216517|    0.824000|    0.011994|
|         721|  -10.892992|  -13.221281|    0.824000|    0.011994|
|         722|  -10.899761|  -13.225890|    0.824000|    0.011994|
|         723|  -10.906135|  -13.230325|    0.824000|    0.011994|
|         724|  -10.912241|  -13.234576|    0.824000|    0.011994|
|         725|  -10.917618|  -13.238632|    0.824000|    0.011994|
|         726|  -10.922401|  -13.242486|    0.824000|    0.011994|
|         727|  -10.926767|  -13.246132|    0.824000|    0.011994|
|         728|  -10.930345|  -13.249564|    0.824000|    0.011994|
|         729|  -10.933415|  -13.252785|    0.824000|    0.011994|
|         730|  -10.935961|  -13.255792|    0.824000|    0.011994|
|         731|  -10.937728|  -13.258594|    0.824000|    0.011994|
|         732|  -10.939128|  -13.261197|    0.824000|    0.011994|
|         733|  -10.939839|  -13.263610|    0.824000|    0.011994|
|         734|  -10.940095|  -13.265844|    0.824000|    0.011994|
|         735|  -10.939943|  -13.267918|    0.824000|    0.011994|
|         736|  -10.939544|  -13.269842|    0.824000|    0.011994|
|         737|  -10.938820|  -13.271639|    0.824000|    0.011994|
|         738|  -10.937847|  -13.273316|    0.824000|    0.011994|
|         739|  -10.936682|  -13.274909|    0.824000|    0.011994|
|         740|  -10.935522|  -13.276423|    0.824000|    0.011994|
|         741|  -10.934282|  -13.277884|    0.824000|    0.011994|
|         742|  -10.933188|  -13.279308|    0.824000|    0.011994|
|         743|  -10.932071|  -13.280720|    0.824000|    0.011994|
|         744|  -10.931169|  -13.282129|    0.824000|    0.011994|
|         745|  -10.930432|  -13.283563|    0.824000|    0.011994|
|         746|  -10.929869|  -13.285033|    0.824000|    0.011994|
|         747|  -10.929569|  -13.286552|    0.824000|    0.011994|
|         748|  -10.929502|  -13.288140|    0.824000|    0.011994|
|         749|  -10.929758|  -13.289802|    0.824000|    0.011994|
|         750|  -10.930261|  -13.291549|    0.824000|    0.011994|
|         751|  -10.931043|  -13.293396|    0.824000|    0.011994|
|         752|  -10.932264|  -13.295342|    0.824000|    0.011994|
|         753|  -10.933724|  -13.297395|    0.824000|    0.011994|
|         754|  -10.935391|  -13.299559|    0.824000|    0.011994|
|         755|  -10.937423|  -13.301831|    0.824000|    0.011994|
|         756|  -10.939711|  -13.304212|    0.824000|    0.011994|
|         757|  -10.942154|  -13.306698|    0.824000|    0.011994|
|         758|  -10.944881|  -13.309283|    0.824000|    0.011994|
|         759|  -10.947797|  -13.311956|    0.824000|    0.011994|
|         760|  -10.950882|  -13.314711|    0.824000|    0.011994|
|         761|  -10.954105|  -13.317533|    0.824000|    0.011994|
|         762|  -10.957401|  -13.320408|    0.824000|    0.011994|
|         763|  -10.960799|  -13.323324|    0.824000|    0.011994|
|         764|  -10.964060|  -13.326257|    0.824000|    0.011994|
|         765|  -10.967368|  -13.329188|    0.824000|    0.011994|
|         766|  -10.970528|  -13.332098|    0.824000|    0.011994|
|         767|  -10.973474|  -13.334965|    0.824000|    0.011994|
|         768|  -10.976498|  -13.337761|    0.824000|    0.011994|
|         769|  -10.979055|  -13.340469|    0.824000|    0.011994|
|         770|  -10.981313|  -13.343059|    0.824000|    0.011994|
|         771|  -10.983266|  -13.345513|    0.824000|    0.011994|
|         772|  -10.984922|  -13.347801|    0.824000|    0.011994|
|         773|  -10.986182|  -13.349910|    0.824000|    0.011994|
|         774|  -10.987118|  -13.351811|    0.824000|    0.011994|
|         775|  -10.987682|  -13.353496|    0.824000|    0.011994|
|         776|  -10.987877|  -13.354941|    0.824000|    0.011994|
|         777|  -10.987531|  -13.356143|    0.824000|    0.011994|
|         778|  -10.986958|  -13.357091|    0.824000|    0.011994|
|         779|  -10.986086|  -13.357780|    0.824000|    0.011994|
|         780|  -10.984809|  -13.358213|    0.824000|    0.011994|
|         781|  -10.983268|  -13.358393|    0.824000|    0.011994|
|         782|  -10.981458|  -13.358330|    0.824000|    0.011994|
|         783|  -10.979571|  -13.358039|    0.824000|    0.011994|
|         784|  -10.977386|  -13.357536|    0.824000|    0.011994|
|         785|  -10.975169|  -13.356840|    0.824000|    0.011994|
|         786|  -10.972816|  -13.355976|    0.824000|    0.011994|
|         787|  -10.970598|  -13.354972|    0.824000|    0.011994|
|         788|  -10.968401|  -13.353856|    0.824000|    0.011994|
|         789|  -10.966124|  -13.352655|    0.824000|    0.011994|
|         790|  -10.963973|  -13.351407|    0.824000|    0.011994|
|         791|  -10.961984|  -13.350142|    0.824000|    0.011994|
|         792|  -10.960075|  -13.348889|    0.824000|    0.011994|
|         793|  -10.958426|  -13.347684|    0.824000|    0.011994|
|         794|  -10.956836|  -13.346559|    0.824000|    0.011994|
|         795|  -10.955742|  -13.345544|    0.824000|    0.011994|
|         796|  -10.954722|  -13.344670|    0.824000|    0.011994|
|         797|  -10.953969|  -13.343965|    0.824000|    0.011994|
|         798|  -10.953427|  -13.343456|    0.824000|    0.011994|
|         799|  -10.953161|  -13.343171|    0.824000|    0.011994|
|         800|  -10.953052|  -13.343131|    0.824000|    0.011994|
|         801|  -10.953259|  -13.343366|    0.824000|    0.011994|
|         802|  -10.953782|  -13.343890|    0.824000|    0.011994|
|         803|  -10.954421|  -13.344723|    0.824000|    0.011994|
|         804|  -10.955269|  -13.345888|    0.824000|    0.011994|
|         805|  -10.956359|  -13.347394|    0.824000|    0.011994|
|         806|  -10.957572|  -13.349263|    0.824000|    0.011994|
|         807|  -10.959012|  -13.351500|    0.824000|    0.011994|
|         808|  -10.960544|  -13.354122|    0.824000|    0.011994|
|         809|  -10.962330|  -13.357140|    0.824000|    0.011994|
|         810|  -10.963993|  -13.360559|    0.824000|    0.011994|
|         811|  -10.965782|  -13.364383|    0.824000|    0.011994|
|         812|  -10.967427|  -13.368622|    0.824000|    0.011994|
|         813|  -10.969177|  -13.373279|    0.824000|    0.011994|
|         814|  -10.970902|  -13.378354|    0.824000|    0.011994|
|         815|  -10.972466|  -13.383844|    0.824000|    0.011994|
|         816|  -10.973782|  -13.389753|    0.824000|    0.011994|
|         817|  -10.975047|  -13.396068|    0.824000|    0.011994|
|         818|  -10.976109|  -13.402787|    0.824000|    0.011994|
|         819|  -10.977008|  -13.409902|    0.824000|    0.011994|
|         820|  -10.977744|  -13.417393|    0.824000|    0.011994|
|         821|  -10.978099|  -13.425253|    0.824000|    0.011994|
|         822|  -10.978124|  -13.433457|    0.824000|    0.011994|
|         823|  -10.977912|  -13.441970|    0.824000|    0.011994|
|         824|  -10.977560|  -13.450783|    0.824000|    0.011994|
|         825|  -10.976684|  -13.459850|    0.824000|    0.011994|
|         826|  -10.975777|  -13.469135|    0.824000|    0.011994|
|         827|  -10.974494|  -13.478591|    0.824000|    0.011994|
|         828|  -10.973007|  -13.488168|    0.824000|    0.011994|
|         829|  -10.971265|  -13.497810|    0.824000|    0.011994|
|         830|  -10.969473|  -13.507453|    0.824000|    0.011994|
|         831|  -10.967472|  -13.517020|    0.824000|    0.011994|
|         832|  -10.965297|  -13.526449|    0.824000|    0.011994|
|         833|  -10.963065|  -13.535643|    0.824000|    0.011994|
|         834|  -10.960845|  -13.544527|    0.824000|    0.011994|
|         835|  -10.958533|  -13.553009|    0.824000|    0.011994|
|         836|  -10.956283|  -13.561005|    0.824000|    0.011994|
|         837|  -10.954024|  -13.568433|    0.824000|    0.011994|
|         838|  -10.951809|  -13.575215|    0.824000|    0.011994|
|         839|  -10.949800|  -13.581268|    0.824000|    0.011994|
|         840|  -10.947906|  -13.586544|    0.824000|    0.011994|
|         841|  -10.946186|  -13.590992|    0.824000|    0.011994|
|         842|  -10.944608|  -13.594592|    0.824000|    0.011994|
|         843|  -10.943276|  -13.597322|    0.824000|    0.011994|
|         844|  -10.942180|  -13.599196|    0.824000|    0.011994|
|         845|  -10.941294|  -13.600226|    0.824000|    0.011994|
|         846|  -10.940732|  -13.600468|    0.824000|    0.011994|
|         847|  -10.940371|  -13.599965|    0.824000|    0.011994|
|         848|  -10.940313|  -13.598782|    0.824000|    0.011994|
|         849|  -10.940599|  -13.596995|    0.824000|    0.011994|
|         850|  -10.941193|  -13.594686|    0.824000|    0.011994|
|         851|  -10.941962|  -13.591933|    0.824000|    0.011994|
|         852|  -10.943129|  -13.588817|    0.824000|    0.011994|
|         853|  -10.944647|  -13.585415|    0.824000|    0.011994|
|         854|  -10.946452|  -13.581806|    0.824000|    0.011994|
|         855|  -10.948449|  -13.578058|    0.824000|    0.011994|
|         856|  -10.950762|  -13.574234|    0.824000|    0.011994|
|         857|  -10.953205|  -13.570387|    0.824000|    0.011994|
|         858|  -10.956069|  -13.566576|    0.824000|    0.011994|
|         859|  -10.959122|  -13.562838|    0.824000|    0.011994|
|         860|  -10.962510|  -13.559209|    0.824000|    0.011994|
|         861|  -10.965806|  -13.555722|    0.824000|    0.011994|
|         862|  -10.969423|  -13.552397|    0.824000|    0.011994|
|         863|  -10.973129|  -13.549256|    0.824000|    0.011994|
|         864|  -10.977032|  -13.546311|    0.824000|    0.011994|
|         865|  -10.980853|  -13.543570|    0.824000|    0.011994|
|         866|  -10.984732|  -13.541036|    0.824000|    0.011994|
|         867|  -10.988544|  -13.538715|    0.824000|    0.011994|
|         868|  -10.992456|  -13.536596|    0.824000|    0.011994|
|         869|  -10.996031|  -13.534677|    0.824000|    0.011994|
|         870|  -10.999610|  -13.532947|    0.824000|    0.011994|
|         871|  -11.003136|  -13.531395|    0.824000|    0.011994|
|         872|  -11.006235|  -13.530007|    0.824000|    0.011994|
|         873|  -11.009228|  -13.528770|    0.824000|    0.011994|
|         874|  -11.011825|  -13.527659|    0.824000|    0.011994|
|         875|  -11.014039|  -13.526664|    0.824000|    0.011994|
|         876|  -11.015941|  -13.525758|    0.824000|    0.011994|
|         877|  -11.017521|  -13.524923|    0.824000|    0.011994|
|         878|  -11.018559|  -13.524141|    0.824000|    0.011994|
|         879|  -11.019401|  -13.523389|    0.824000|    0.011994|
|         880|  -11.019778|  -13.522647|    0.824000|    0.011994|
|         881|  -11.019628|  -13.521896|    0.824000|    0.011994|
|         882|  -11.019346|  -13.521114|    0.824000|    0.011994|
|         883|  -11.018592|  -13.520290|    0.824000|    0.011994|
|         884|  -11.017533|  -13.519406|    0.824000|    0.011994|
|         885|  -11.016249|  -13.518449|    0.824000|    0.011994|
|         886|  -11.014668|  -13.517408|    0.824000|    0.011994|
|         887|  -11.012952|  -13.516278|    0.824000|    0.011994|
|         888|  -11.010984|  -13.515050|    0.824000|    0.011994|
|         889|  -11.008813|  -13.513725|    0.824000|    0.011994|
|         890|  -11.006787|  -13.512301|    0.824000|    0.011994|
|         891|  -11.004559|  -13.510784|    0.824000|    0.011994|
|         892|  -11.002470|  -13.509179|    0.824000|    0.011994|
|         893|  -11.000281|  -13.507497|    0.824000|    0.011994|
|         894|  -10.998317|  -13.505748|    0.824000|    0.011994|
|         895|  -10.996414|  -13.503945|    0.824000|    0.011994|
|         896|  -10.994700|  -13.502104|    0.824000|    0.011994|
|         897|  -10.993236|  -13.500245|    0.824000|    0.011994|
|         898|  -10.991900|  -13.498386|    0.824000|    0.011994|
|         899|  -10.990857|  -13.496547|    0.824000|    0.011994|
|         900|  -10.989929|  -13.494749|    0.824000|    0.011994|
|         901|  -10.989435|  -13.493016|    0.824000|    0.011994|
|         902|  -10.989215|  -13.491365|    0.824000|    0.011994|
|         903|  -10.989252|  -13.489827|    0.824000|    0.011994|
|         904|  -10.989755|  -13.488416|    0.824000|    0.011994|
|         905|  -10.990438|  -13.487156|    0.824000|    0.011994|
|         906|  -10.991555|  -13.486068|    0.824000|    0.011994|
|         907|  -10.993031|  -13.485174|    0.824000|    0.011994|
|         908|  -10.994823|  -13.484493|    0.824000|    0.011994|
|         909|  -10.997110|  -13.484043|    0.824000|    0.011994|
|         910|  -10.999500|  -13.483841|    0.824000|    0.011994|
|         911|  -11.002369|  -13.483907|    0.824000|    0.011994|
|         912|  -11.005619|  -13.484255|    0.824000|    0.011994|
|         913|  -11.009121|  -13.484901|    0.824000|    0.011994|
|         914|  -11.012956|  -13.485856|    0.824000|    0.011994|
|         915|  -11.017147|  -13.487134|    0.824000|    0.011994|
|         916|  -11.021574|  -13.488742|    0.824000|    0.011994|
|         917|  -11.026264|  -13.490702|    0.824000|    0.011994|
|         918|  -11.031147|  -13.493009|    0.824000|    0.011994|
|         919|  -11.036281|  -13.495685|    0.824000|    0.011994|
|         920|  -11.041551|  -13.498727|    0.824000|    0.011994|
|         921|  -11.047135|  -13.502139|    0.824000|    0.011994|
|         922|  -11.052769|  -13.505931|    0.824000|    0.011994|
|         923|  -11.058470|  -13.510103|    0.824000|    0.011994|
|         924|  -11.064129|  -13.514662|    0.824000|    0.011994|
|         925|  -11.069847|  -13.519602|    0.824000|    0.011994|
|         926|  -11.075545|  -13.524920|    0.824000|    0.011994|
|         927|  -11.080938|  -13.530621|    0.824000|    0.011994|
|         928|  -11.086185|  -13.536689|    0.824000|    0.011994|
|         929|  -11.091370|  -13.543116|    0.824000|    0.011994|
|         930|  -11.096278|  -13.549908|    0.824000|    0.011994|
|         931|  -11.100678|  -13.557035|    0.824000|    0.011994|
|         932|  -11.104833|  -13.564494|    0.824000|    0.011994|
|         933|  -11.108458|  -13.572258|    0.824000|    0.011994|
|         934|  -11.111910|  -13.580318|    0.824000|    0.011994|
|         935|  -11.114797|  -13.588632|    0.824000|    0.011994|
|         936|  -11.117086|  -13.597175|    0.824000|    0.011994|
|         937|  -11.119119|  -13.605928|    0.824000|    0.011994|
|         938|  -11.120594|  -13.614830|    0.824000|    0.011994|
|         939|  -11.121788|  -13.623855|    0.824000|    0.011994|
|         940|  -11.122128|  -13.632956|    0.824000|    0.011994|
|         941|  -11.122286|  -13.642067|    0.824000|    0.011994|
|         942|  -11.121958|  -13.651134|    0.824000|    0.011994|
|         943|  -11.121256|  -13.660111|    0.824000|    0.011994|
|         944|  -11.120345|  -13.668898|    0.824000|    0.011994|
|         945|  -11.119062|  -13.677482|    0.824000|    0.011994|
|         946|  -11.117769|  -13.685741|    0.824000|    0.011994|
|         947|  -11.116190|  -13.693620|    0.824000|    0.011994|
|         948|  -11.114435|  -13.701070|    0.824000|    0.011994|
|         949|  -11.112770|  -13.707997|    0.824000|    0.011994|
|         950|  -11.110933|  -13.714372|    0.824000|    0.011994|
|         951|  -11.109198|  -13.720100|    0.824000|    0.011994|
|         952|  -11.107413|  -13.725183|    0.824000|    0.011994|
|         953|  -11.105863|  -13.729565|    0.824000|    0.011994|
|         954|  -11.104435|  -13.733236|    0.824000|    0.011994|
|         955|  -11.103311|  -13.736184|    0.824000|    0.011994|
|         956|  -11.102229|  -13.738414|    0.824000|    0.011994|
|         957|  -11.101434|  -13.739953|    0.824000|    0.011994|
|         958|  -11.100776|  -13.740843|    0.824000|    0.011994|
|         959|  -11.100591|  -13.741116|    0.824000|    0.011994|
|         960|  -11.100545|  -13.740813|    0.824000|    0.011994|
|         961|  -11.100852|  -13.740004|    0.824000|    0.011994|
|         962|  -11.101708|  -13.738734|    0.824000|    0.011994|
|         963|  -11.102727|  -13.737096|    0.824000|    0.011994|
|         964|  -11.104258|  -13.735132|    0.824000|    0.011994|
|         965|  -11.105871|  -13.732905|    0.824000|    0.011994|
|         966|  -11.108048|  -13.730486|    0.824000|    0.011994|
|         967|  -11.110532|  -13.727929|    0.824000|    0.011994|
|         968|  -11.113375|  -13.725270|    0.824000|    0.011994|
|         969|  -11.116459|  -13.722571|    0.824000|    0.011994|
|         970|  -11.119934|  -13.719870|    0.824000|    0.011994|
|         971|  -11.123841|  -13.717191|    0.824000|    0.011994|
|         972|  -11.127851|  -13.714577|    0.824000|    0.011994|
|         973|  -11.132419|  -13.712057|    0.824000|    0.011994|
|         974|  -11.137160|  -13.709640|    0.824000|    0.011994|
|         975|  -11.141958|  -13.707342|    0.824000|    0.011994|
|         976|  -11.147101|  -13.705178|    0.824000|    0.011994|
|         977|  -11.152591|  -13.703151|    0.824000|    0.011994|
|         978|  -11.158347|  -13.701271|    0.824000|    0.011994|
|         979|  -11.164123|  -13.699530|    0.824000|    0.011994|
|         980|  -11.169903|  -13.697926|    0.824000|    0.011994|
|         981|  -11.175777|  -13.696450|    0.824000|    0.011994|
|         982|  -11.181816|  -13.695098|    0.824000|    0.011994|
|         983|  -11.187539|  -13.693854|    0.824000|    0.011994|
|         984|  -11.193648|  -13.692708|    0.824000|    0.011994|
|         985|  -11.199006|  -13.691649|    0.824000|    0.011994|
|         986|  -11.204802|  -13.690652|    0.824000|    0.011994|
|         987|  -11.209973|  -13.689711|    0.824000|    0.011994|
|         988|  -11.214807|  -13.688796|    0.824000|    0.011994|
|         989|  -11.219689|  -13.687904|    0.824000|    0.011994|
|         990|  -11.224163|  -13.687010|    0.824000|    0.011994|
|         991|  -11.227895|  -13.686102|    0.824000|    0.011994|
|         992|  -11.231443|  -13.685162|    0.824000|    0.011994|
|         993|  -11.234389|  -13.684179|    0.824000|    0.011994|
|         994|  -11.236960|  -13.683135|    0.824000|    0.011994|
|         995|  -11.239005|  -13.682030|    0.824000|    0.011994|
|         996|  -11.240595|  -13.680843|    0.824000|    0.011994|
|         997|  -11.241754|  -13.679577|    0.824000|    0.011994|
|         998|  -11.242390|  -13.678223|    0.824000|    0.011994|
|         999|  -11.242488|  -13.676787|    0.824000|    0.011994|
|        1000|  -11.242493|  -13.675263|    0.824000|    0.011994|
|        1001|  -11.241932|  -13.673659|    0.824000|    0.011994|
|        1002|  -11.241040|  -13.671982|    0.824000|    0.011994|
[...]
|        1724|   -6.009293|   -7.912535|    0.824238|    0.011999|
|        1725|   -6.017358|   -7.916377|    0.824238|    0.011999|
|        1726|   -6.025281|   -7.920193|    0.824238|    0.011999|
|        1727|   -6.032993|   -7.924005|    0.824239|    0.011999|
|        1728|   -6.040428|   -7.927829|    0.824239|    0.011999|
|        1729|   -6.047526|   -7.931684|    0.824239|    0.011999|
|        1730|   -6.054233|   -7.935581|    0.824239|    0.011999|
|        1731|   -6.060506|   -7.939532|    0.824239|    0.011999|
|        1732|   -6.066312|   -7.943545|    0.824239|    0.011998|
|        1733|   -6.071629|   -7.947625|    0.824239|    0.011998|
|        1734|   -6.076451|   -7.951775|    0.824239|    0.011998|
|        1735|   -6.080783|   -7.955995|    0.824239|    0.011998|
|        1736|   -6.084643|   -7.960285|    0.824240|    0.011998|
|        1737|   -6.088060|   -7.964645|    0.824240|    0.011998|
|        1738|   -6.091073|   -7.969072|    0.824240|    0.011998|
|        1739|   -6.093729|   -7.973559|    0.824240|    0.011998|
|        1740|   -6.096082|   -7.978102|    0.824240|    0.011998|
|        1741|   -6.098192|   -7.982695|    0.824240|    0.011998|
|        1742|   -6.100116|   -7.987332|    0.824240|    0.011998|
|        1743|   -6.101917|   -7.992008|    0.824240|    0.011998|
|        1744|   -6.103654|   -7.996720|    0.824240|    0.011998|
|        1745|   -6.105383|   -8.001467|    0.824240|    0.011998|
|        1746|   -6.107157|   -8.006247|    0.824241|    0.011998|
|        1747|   -6.109023|   -8.011063|    0.824241|    0.011998|
|        1748|   -6.111025|   -8.015915|    0.824241|    0.011998|
|        1749|   -6.113198|   -8.020807|    0.824241|    0.011998|
|        1750|   -6.115572|   -8.025742|    0.824241|    0.011998|
|        1751|   -6.118169|   -8.030727|    0.824241|    0.011998|
|        1752|   -6.121005|   -8.035764|    0.824241|    0.011998|
|        1753|   -6.124090|   -8.040860|    0.824242|    0.011998|
|        1754|   -6.127427|   -8.046017|    0.824242|    0.011998|
|        1755|   -6.131011|   -8.051240|    0.824242|    0.011999|
|        1756|   -6.134830|   -8.056531|    0.824242|    0.011999|
|        1757|   -6.138870|   -8.061891|    0.824242|    0.011999|
|        1758|   -6.143106|   -8.067320|    0.824242|    0.011999|
|        1759|   -6.147510|   -8.072817|    0.824243|    0.011999|
|        1760|   -6.152048|   -8.078383|    0.824243|    0.011999|
|        1761|   -6.156682|   -8.084014|    0.824243|    0.011999|
|        1762|   -6.161371|   -8.089708|    0.824243|    0.011999|
|        1763|   -6.166071|   -8.095460|    0.824243|    0.011999|
|        1764|   -6.170736|   -8.101265|    0.824243|    0.011999|
|        1765|   -6.175319|   -8.107118|    0.824244|    0.011999|
|        1766|   -6.179778|   -8.113014|    0.824244|    0.011999|
|        1767|   -6.184069|   -8.118947|    0.824244|    0.011999|
|        1768|   -6.188156|   -8.124912|    0.824244|    0.012000|
|        1769|   -6.192005|   -8.130905|    0.824244|    0.012000|
|        1770|   -6.195592|   -8.136921|    0.824244|    0.012000|
|        1771|   -6.198900|   -8.142958|    0.824245|    0.012000|
|        1772|   -6.201919|   -8.149012|    0.824245|    0.012000|
|        1773|   -6.204648|   -8.155082|    0.824245|    0.012000|
|        1774|   -6.207098|   -8.161167|    0.824245|    0.012000|
|        1775|   -6.209285|   -8.167266|    0.824245|    0.012000|
|        1776|   -6.211233|   -8.173381|    0.824245|    0.012000|
|        1777|   -6.212975|   -8.179514|    0.824245|    0.012000|
|        1778|   -6.214548|   -8.185665|    0.824246|    0.012000|
|        1779|   -6.215997|   -8.191837|    0.824246|    0.012000|
|        1780|   -6.217362|   -8.198034|    0.824246|    0.012000|
|        1781|   -6.218689|   -8.204257|    0.824246|    0.012001|
|        1782|   -6.220025|   -8.210512|    0.824246|    0.012001|
|        1783|   -6.221415|   -8.216802|    0.824246|    0.012001|
|        1784|   -6.222903|   -8.223129|    0.824246|    0.012001|
|        1785|   -6.224529|   -8.229494|    0.824246|    0.012001|
|        1786|   -6.226330|   -8.235899|    0.824246|    0.012001|
|        1787|   -6.228340|   -8.242344|    0.824246|    0.012001|
|        1788|   -6.230589|   -8.248828|    0.824246|    0.012001|
|        1789|   -6.233101|   -8.255348|    0.824247|    0.012001|
|        1790|   -6.235896|   -8.261902|    0.824247|    0.012001|
|        1791|   -6.238991|   -8.268488|    0.824247|    0.012001|
|        1792|   -6.242394|   -8.275102|    0.824247|    0.012001|
|        1793|   -6.246112|   -8.281739|    0.824247|    0.012001|
|        1794|   -6.250144|   -8.288392|    0.824247|    0.012001|
|        1795|   -6.254487|   -8.295057|    0.824247|    0.012001|
|        1796|   -6.259129|   -8.301725|    0.824247|    0.012001|
|        1797|   -6.264057|   -8.308391|    0.824247|    0.012001|
|        1798|   -6.269250|   -8.315046|    0.824247|    0.012001|
|        1799|   -6.274683|   -8.321685|    0.824247|    0.012001|
|        1800|   -6.280329|   -8.328302|    0.824247|    0.012001|
|        1801|   -6.286151|   -8.334890|    0.824247|    0.012001|
|        1802|   -6.292114|   -8.341445|    0.824247|    0.012001|
|        1803|   -6.298174|   -8.347963|    0.824247|    0.012001|
|        1804|   -6.304287|   -8.354440|    0.824247|    0.012001|
|        1805|   -6.310405|   -8.360876|    0.824247|    0.012001|
|        1806|   -6.316480|   -8.367269|    0.824247|    0.012001|
|        1807|   -6.322461|   -8.373619|    0.824247|    0.012001|
|        1808|   -6.328299|   -8.379928|    0.824247|    0.012001|
|        1809|   -6.333946|   -8.386197|    0.824247|    0.012000|
|        1810|   -6.339356|   -8.392432|    0.824247|    0.012000|
|        1811|   -6.344489|   -8.398636|    0.824247|    0.012000|
|        1812|   -6.349309|   -8.404817|    0.824247|    0.012000|
|        1813|   -6.353785|   -8.410980|    0.824247|    0.012000|
|        1814|   -6.357894|   -8.417134|    0.824247|    0.012000|
|        1815|   -6.361622|   -8.423286|    0.824247|    0.012000|
|        1816|   -6.364958|   -8.429445|    0.824247|    0.012000|
|        1817|   -6.367903|   -8.435617|    0.824247|    0.012000|
|        1818|   -6.370463|   -8.441811|    0.824247|    0.012000|
|        1819|   -6.372651|   -8.448032|    0.824247|    0.012000|
|        1820|   -6.374483|   -8.454285|    0.824247|    0.012000|
|        1821|   -6.375982|   -8.460572|    0.824248|    0.012000|
|        1822|   -6.377173|   -8.466894|    0.824248|    0.011999|
|        1823|   -6.378083|   -8.473250|    0.824248|    0.011999|
|        1824|   -6.378740|   -8.479636|    0.824248|    0.011999|
|        1825|   -6.379173|   -8.486044|    0.824248|    0.011999|
|        1826|   -6.379407|   -8.492465|    0.824248|    0.011999|
|        1827|   -6.379468|   -8.498886|    0.824248|    0.011999|
|        1828|   -6.379379|   -8.505293|    0.824248|    0.011999|
|        1829|   -6.379161|   -8.511667|    0.824249|    0.011999|
|        1830|   -6.378832|   -8.517989|    0.824249|    0.011999|
|        1831|   -6.378407|   -8.524238|    0.824249|    0.011999|
|        1832|   -6.377899|   -8.530391|    0.824249|    0.011998|
|        1833|   -6.377319|   -8.536425|    0.824249|    0.011998|
|        1834|   -6.376674|   -8.542317|    0.824249|    0.011998|
|        1835|   -6.375972|   -8.548045|    0.824250|    0.011998|
|        1836|   -6.375217|   -8.553588|    0.824250|    0.011998|
|        1837|   -6.374414|   -8.558928|    0.824250|    0.011998|
|        1838|   -6.373565|   -8.564049|    0.824250|    0.011998|
|        1839|   -6.372672|   -8.568939|    0.824250|    0.011998|
|        1840|   -6.371739|   -8.573587|    0.824250|    0.011998|
|        1841|   -6.370767|   -8.577989|    0.824251|    0.011998|
|        1842|   -6.369759|   -8.582142|    0.824251|    0.011998|
|        1843|   -6.368717|   -8.586047|    0.824251|    0.011997|
|        1844|   -6.367644|   -8.589709|    0.824251|    0.011997|
|        1845|   -6.366543|   -8.593134|    0.824251|    0.011997|
|        1846|   -6.365420|   -8.596332|    0.824251|    0.011997|
|        1847|   -6.364277|   -8.599313|    0.824252|    0.011997|
|        1848|   -6.363122|   -8.602087|    0.824252|    0.011997|
|        1849|   -6.361959|   -8.604668|    0.824252|    0.011997|
|        1850|   -6.360796|   -8.607065|    0.824252|    0.011997|
|        1851|   -6.359640|   -8.609289|    0.824252|    0.011997|
|        1852|   -6.358499|   -8.611350|    0.824252|    0.011997|
|        1853|   -6.357382|   -8.613255|    0.824253|    0.011997|
|        1854|   -6.356298|   -8.615013|    0.824253|    0.011997|
|        1855|   -6.355259|   -8.616628|    0.824253|    0.011997|
|        1856|   -6.354276|   -8.618105|    0.824253|    0.011997|
|        1857|   -6.353361|   -8.619448|    0.824253|    0.011997|
|        1858|   -6.352528|   -8.620661|    0.824253|    0.011997|
|        1859|   -6.351788|   -8.621746|    0.824253|    0.011997|
|        1860|   -6.351156|   -8.622707|    0.824253|    0.011997|
|        1861|   -6.350648|   -8.623549|    0.824254|    0.011997|
|        1862|   -6.350277|   -8.624277|    0.824254|    0.011997|
|        1863|   -6.350059|   -8.624896|    0.824254|    0.011997|
|        1864|   -6.350010|   -8.625415|    0.824254|    0.011997|
|        1865|   -6.350145|   -8.625844|    0.824254|    0.011997|
|        1866|   -6.350479|   -8.626194|    0.824254|    0.011997|
|        1867|   -6.351027|   -8.626478|    0.824254|    0.011997|
|        1868|   -6.351803|   -8.626710|    0.824254|    0.011997|
|        1869|   -6.352821|   -8.626906|    0.824254|    0.011997|
|        1870|   -6.354091|   -8.627082|    0.824254|    0.011997|
|        1871|   -6.355626|   -8.627256|    0.824254|    0.011997|
|        1872|   -6.357433|   -8.627443|    0.824255|    0.011997|
|        1873|   -6.359521|   -8.627662|    0.824255|    0.011997|
|        1874|   -6.361893|   -8.627928|    0.824255|    0.011997|
|        1875|   -6.364554|   -8.628258|    0.824255|    0.011997|
|        1876|   -6.367502|   -8.628665|    0.824255|    0.011997|
|        1877|   -6.370736|   -8.629164|    0.824255|    0.011997|
|        1878|   -6.374250|   -8.629766|    0.824255|    0.011997|
|        1879|   -6.378035|   -8.630481|    0.824255|    0.011997|
|        1880|   -6.382081|   -8.631319|    0.824255|    0.011997|
|        1881|   -6.386371|   -8.632284|    0.824255|    0.011997|
|        1882|   -6.390886|   -8.633384|    0.824255|    0.011997|
|        1883|   -6.395605|   -8.634622|    0.824255|    0.011997|
|        1884|   -6.400502|   -8.635999|    0.824255|    0.011998|
|        1885|   -6.405546|   -8.637517|    0.824255|    0.011998|
|        1886|   -6.410705|   -8.639174|    0.824255|    0.011998|
|        1887|   -6.415943|   -8.640966|    0.824255|    0.011998|
|        1888|   -6.421220|   -8.642892|    0.824255|    0.011998|
|        1889|   -6.426495|   -8.644947|    0.824255|    0.011998|
|        1890|   -6.431724|   -8.647126|    0.824255|    0.011998|
|        1891|   -6.436862|   -8.649425|    0.824255|    0.011998|
|        1892|   -6.441863|   -8.651837|    0.824255|    0.011998|
|        1893|   -6.446681|   -8.654358|    0.824255|    0.011998|
|        1894|   -6.451273|   -8.656983|    0.824255|    0.011998|
|        1895|   -6.455596|   -8.659706|    0.824255|    0.011998|
|        1896|   -6.459613|   -8.662522|    0.824255|    0.011999|
|        1897|   -6.463288|   -8.665427|    0.824255|    0.011999|
|        1898|   -6.466593|   -8.668415|    0.824255|    0.011999|
|        1899|   -6.469505|   -8.671482|    0.824255|    0.011999|
|        1900|   -6.472008|   -8.674623|    0.824254|    0.011999|
|        1901|   -6.474094|   -8.677836|    0.824254|    0.011999|
|        1902|   -6.475760|   -8.681114|    0.824254|    0.011999|
|        1903|   -6.477015|   -8.684456|    0.824254|    0.011999|
|        1904|   -6.477870|   -8.687858|    0.824254|    0.011999|
|        1905|   -6.478343|   -8.691316|    0.824254|    0.011999|
|        1906|   -6.478458|   -8.694827|    0.824254|    0.011999|
|        1907|   -6.478247|   -8.698386|    0.824254|    0.011999|
|        1908|   -6.477741|   -8.701988|    0.824254|    0.011999|
|        1909|   -6.476977|   -8.705627|    0.824254|    0.011999|
|        1910|   -6.475992|   -8.709298|    0.824253|    0.011999|
|        1911|   -6.474826|   -8.712994|    0.824253|    0.012000|
|        1912|   -6.473518|   -8.716709|    0.824253|    0.012000|
|        1913|   -6.472106|   -8.720438|    0.824253|    0.012000|
|        1914|   -6.470628|   -8.724176|    0.824253|    0.012000|
|        1915|   -6.469119|   -8.727915|    0.824253|    0.012000|
|        1916|   -6.467612|   -8.731652|    0.824253|    0.012000|
|        1917|   -6.466139|   -8.735382|    0.824253|    0.012000|
|        1918|   -6.464727|   -8.739101|    0.824253|    0.012000|
|        1919|   -6.463403|   -8.742803|    0.824252|    0.012000|
|        1920|   -6.462189|   -8.746485|    0.824252|    0.012000|
|        1921|   -6.461105|   -8.750145|    0.824252|    0.012000|
|        1922|   -6.460170|   -8.753780|    0.824252|    0.012000|
|        1923|   -6.459398|   -8.757389|    0.824252|    0.012000|
|        1924|   -6.458802|   -8.760972|    0.824252|    0.012000|
|        1925|   -6.458392|   -8.764528|    0.824252|    0.012000|
|        1926|   -6.458177|   -8.768059|    0.824252|    0.012000|
|        1927|   -6.458164|   -8.771567|    0.824252|    0.012000|
|        1928|   -6.458356|   -8.775055|    0.824252|    0.012000|
|        1929|   -6.458758|   -8.778527|    0.824252|    0.012000|
|        1930|   -6.459370|   -8.781987|    0.824251|    0.012000|
|        1931|   -6.460195|   -8.785438|    0.824251|    0.012000|
|        1932|   -6.461230|   -8.788885|    0.824251|    0.012000|
|        1933|   -6.462475|   -8.792332|    0.824251|    0.011999|
|        1934|   -6.463929|   -8.795783|    0.824251|    0.011985|
+-----------------------------------------------------------------------+
|Fixed CL Mode (Finite Difference)       |Value                         |
+-----------------------------------------------------------------------+
|Delta CL / Delta AoA                    |0.251644                      |
|Delta CD / Delta CL                     |0.0200495                     |
|Delta CMz / Delta CL                    |0.0165963                     |
+-----------------------------------------------------------------------+
Writing Flow Meta-Data file: flow.meta

--------------------------- Finalizing Solver ---------------------------
Deleted CNumerics container.
Deleted CIntegration container.
Deleted CSolver container.
Deleted CIteration container.
Deleted CInterface container.
Deleted CGeometry container.
Deleted CFreeFormDefBox class.
Deleted CSurfaceMovement class.
Deleted CVolumetricMovement class.
Deleted CConfig container.
Deleted nInst container.
Deleted COutput class.
-------------------------------------------------------------------------

------------------------- Exit Success (SU2_CFD) ------------------------


-------------------------------------------------------------------------
|    ___ _   _ ___                                                      |
|   / __| | | |_  )   Release 8.0.0 "Harrier"                           |
|   \__ \ |_| |/ /                                                      |
|   |___/\___//___|   Suite (Solution Exporting Code)                   |
|                                                                       |
-------------------------------------------------------------------------
| SU2 Project Website: https://su2code.github.io                        |
|                                                                       |
| The SU2 Project is maintained by the SU2 Foundation                   |
| (http://su2foundation.org)                                            |
-------------------------------------------------------------------------
| Copyright 2012-2023, SU2 Contributors                                 |
|                                                                       |
| SU2 is free software; you can redistribute it and/or                  |
| modify it under the terms of the GNU Lesser General Public            |
| License as published by the Free Software Foundation; either          |
| version 2.1 of the License, or (at your option) any later version.    |
|                                                                       |
| SU2 is distributed in the hope that it will be useful,                |
| but WITHOUT ANY WARRANTY; without even the implied warranty of        |
| MERCHANTABILITY or FITNESS FOR A PARTICULAR PURPOSE. See the GNU      |
| Lesser General Public License for more details.                       |
|                                                                       |
| You should have received a copy of the GNU Lesser General Public      |
| License along with SU2. If not, see <http://www.gnu.org/licenses/>.   |
-------------------------------------------------------------------------

----------------- Physical Case Definition ( Zone 0 ) -------------------
Input mesh file name: mesh_RAE2822_turb_deform.su2

-------------------- Output Information ( Zone 0 ) ----------------------
The tabular file format is CSV (.csv).
Flow variables file name: flow.

------------- Config File Boundary Information ( Zone 0 ) ---------------
+-----------------------------------------------------------------------+
|                        Marker Type|                        Marker Name|
+-----------------------------------------------------------------------+
|                          Far-field|                           FARFIELD|
+-----------------------------------------------------------------------+
|                     Heat flux wall|                            AIRFOIL|
+-----------------------------------------------------------------------+
Two dimensional problem.
13937 grid points before partitioning.
22842 volume elements before partitioning.
2 surface markers.
192 boundary elements in index 0 (Marker = AIRFOIL).
40 boundary elements in index 1 (Marker = FARFIELD).
Executing the partitioning functions.
Building the graph adjacency structure.
Calling ParMETIS... graph partitioning complete (831 edge cuts).
Distributing ParMETIS coloring.
Rebalancing vertices.
Rebalancing volume element connectivity.
Rebalancing markers and surface elements.
14875 vertices including ghost points. 
23674 interior elements including halo cells. 
18780 triangles.
4894 quadrilaterals.
Establishing MPI communication patterns.
Identify vertices.
Storing a mapping from global to local point index.

------------------------- Solution Postprocessing -----------------------
Reading and storing the solution from restart_flow.
Volume output fields: COORDINATES, SOLUTION
  Info: Ignoring the following screen output fields:
  RMS_DENSITY, RMS_NU_TILDE, LIFT, DRAG
Screen output fields: INNER_ITER
  Info: Ignoring the following history output groups:
  RMS_RES, AERO_COEFF
History output group(s): ITER
Warning: No (valid) fields chosen for convergence monitoring. Convergence monitoring inactive.
Warning: No (valid) fields chosen for time convergence monitoring. Time convergence monitoring inactive.
|Paraview                           |flow.vtu                           |
|Paraview surface                   |surface_flow.vtu                   |
|CSV file                           |surface_flow.csv                   |

------------------------- Finalize Solver -------------------------
Deleted CGeometry container.
Deleted CSolver class.
Deleted CConfig container.
Deleted COutput class.

Completed in 0.018559 seconds on 6 cores.

------------------------- Exit Success (SU2_SOL) ------------------------

