
-------------------------------------------------------------------------
|    ___ _   _ ___                                                      |
|   / __| | | |_  )   Release 8.0.0 "Harrier"                           |
|   \__ \ |_| |/ /                                                      |
|   |___/\___//___|   Suite (Computational Fluid Dynamics Code)         |
|                                                                       |
-------------------------------------------------------------------------
| SU2 Project Website: https://su2code.github.io                        |
|                                                                       |
| The SU2 Project is maintained by the SU2 Foundation                   |
| (http://su2foundation.org)                                            |
-------------------------------------------------------------------------
| Copyright 2012-2023, SU2 Contributors                                 |
|                                                                       |
| SU2 is free software; you can redistribute it and/or                  |
| modify it under the terms of the GNU Lesser General Public            |
| License as published by the Free Software Foundation; either          |
| version 2.1 of the License, or (at your option) any later version.    |
|                                                                       |
| SU2 is distributed in the hope that it will be useful,                |
| but WITHOUT ANY WARRANTY; without even the implied warranty of        |
| MERCHANTABILITY or FITNESS FOR A PARTICULAR PURPOSE. See the GNU      |
| Lesser General Public License for more details.                       |
|                                                                       |
| You should have received a copy of the GNU Lesser General Public      |
| License along with SU2. If not, see <http://www.gnu.org/licenses/>.   |
-------------------------------------------------------------------------

Parsing config file for zone 0

----------------- Physical Case Definition ( Zone 0 ) -------------------
Compressible RANS equations.
Turbulence model: Spalart-Allmaras-noft2
Hybrid RANS/LES: No Hybrid RANS/LES
Mach number: 0.734.
Angle of attack (AoA): 2.31 deg, and angle of sideslip (AoS): 0 deg.
Reynolds number: 6.5e+06. Reference length 1.
Fixed CL mode, target value: 0.824.
Reading and writing binary SU2 native restart files.
Read flow solution from: solution_flow.dat.
Dimensional simulation.
The reference area is 1 m^2.
The semi-span will be computed using the max y(3D) value.
The reference length is 1 m.
Reference origin for moment evaluation is (0.25, 0, 0).
Surface(s) where the force coefficients are evaluated: AIRFOIL.

Surface(s) plotted in the output file: AIRFOIL.
Surface(s) affected by the design variables: AIRFOIL.
Input mesh file name: mesh_RAE2822_turb_deform.su2

--------------- Space Numerical Integration ( Zone 0 ) ------------------
Jameson-Schmidt-Turkel scheme (2nd order in space) for the flow inviscid terms.
JST viscous coefficients (2nd & 4th): 0.5, 0.02.
The method includes a grid stretching correction (p = 0.3).
Scalar upwind solver for the turbulence model.
First order integration in space.
Average of gradients with correction (viscous flow terms).
Average of gradients with correction (viscous turbulence terms).
Gradient for viscous and source terms: inverse-distance weighted Least-Squares.

--------------- Time Numerical Integration  ( Zone 0 ) ------------------
Local time stepping (steady state simulation).
Euler implicit method for the flow equations.
FGMRES is used for solving the linear system.
Using a ILU(0) preconditioning.
Convergence criteria of the linear solver: 1e-06.
Max number of linear iterations: 10.
No CFL adaptation.
Courant-Friedrichs-Lewy number:       10
Euler implicit time integration for the turbulence model.

------------------ Convergence Criteria  ( Zone 0 ) ---------------------
Maximum number of solver subiterations: 5500.
Begin convergence monitoring at iteration 10.
Residual minimum value: 1e-12.
Cauchy series min. value: 1e-06.
Number of Cauchy elements: 100.
Begin windowed time average at iteration 0.

-------------------- Output Information ( Zone 0 ) ----------------------
File writing frequency: 
+------------------------------------+
|                     File| Frequency|
+------------------------------------+
|                  RESTART|     10000|
|                 PARAVIEW|     10000|
|         SURFACE_PARAVIEW|     10000|
|              SURFACE_CSV|     10000|
+------------------------------------+
Writing the convergence history file every 1 inner iterations.
Writing the screen convergence history every 1 inner iterations.
The tabular file format is CSV (.csv).
Convergence history file name: history_direct.
Forces breakdown file name: forces_breakdown.dat.
Surface file name: surface_flow.
Volume file name: flow.
Restart file name: restart_flow.dat.

------------- Config File Boundary Information ( Zone 0 ) ---------------
+-----------------------------------------------------------------------+
|                        Marker Type|                        Marker Name|
+-----------------------------------------------------------------------+
|                          Far-field|                           FARFIELD|
+-----------------------------------------------------------------------+
|                     Heat flux wall|                            AIRFOIL|
+-----------------------------------------------------------------------+

-------------------- Output Preprocessing ( Zone 0 ) --------------------

WARNING: SURFACE_PRESSURE_DROP can only be computed for at least 2 surfaces (outlet, inlet, ...)

Screen output fields: INNER_ITER, RMS_DENSITY, RMS_NU_TILDE, LIFT, DRAG
History output group(s): ITER, RMS_RES, AERO_COEFF
Convergence field(s): RMS_DENSITY
Warning: No (valid) fields chosen for time convergence monitoring. Time convergence monitoring inactive.
Volume output fields: COORDINATES, SOLUTION, PRIMITIVE

------------------- Geometry Preprocessing ( Zone 0 ) -------------------
Two dimensional problem.
13937 grid points before partitioning.
22842 volume elements before partitioning.
2 surface markers.
192 boundary elements in index 0 (Marker = AIRFOIL).
40 boundary elements in index 1 (Marker = FARFIELD).
Executing the partitioning functions.
Building the graph adjacency structure.
Calling ParMETIS... graph partitioning complete (831 edge cuts).
Distributing ParMETIS coloring.
Rebalancing vertices.
Rebalancing volume element connectivity.
Rebalancing markers and surface elements.
14875 vertices including ghost points. 
23674 interior elements including halo cells. 
18780 triangles.
4894 quadrilaterals.
Establishing MPI communication patterns.
Setting point connectivity.
Renumbering points (Reverse Cuthill McKee Ordering).
Recomputing point connectivity.
Setting element connectivity.
Checking the numerical grid orientation.
All volume elements are correctly orientend.
All surface elements are correctly orientend.
Identifying edges and vertices.
Setting the control volume structure.
Area of the computational grid: 32209.9.
Searching for the closest normal neighbors to the surfaces.
Storing a mapping from global to local point index.
Compute the surface curvature.
Max K: 370.228. Mean K: 11.2073. Standard deviation K: 46.5885.
Checking for periodicity.
Computing mesh quality statistics for the dual control volumes.
+--------------------------------------------------------------+
|           Mesh Quality Metric|        Minimum|        Maximum|
+--------------------------------------------------------------+
|    Orthogonality Angle (deg.)|        72.6337|        89.9987|
|     CV Face Area Aspect Ratio|        1.00185|        3362.36|
|           CV Sub-Volume Ratio|        1.00041|        1232.03|
+--------------------------------------------------------------+
Finding max control volume width.
Communicating number of neighbors.
Wetted area = 2.02179 m.
Area projection in the x-plane = 0.136773 m, y-plane = 0.995873 m.
Max. coordinate in the x-direction = 1 m, y-direction = 0.0598242 m.
Min. coordinate in the x-direction = 0 m, y-direction = -0.0701773 m.
Computing wall distances.

-------------------- Solver Preprocessing ( Zone 0 ) --------------------
WARNING: AoA in the solution file (2.7624 deg.) +
         AoA offset in mesh file (0 deg.) = 2.7624 deg.
WARNING: SU2 will use the dCD/dCL provided in the direct solution file: 0.0203569.
WARNING: SU2 will use the dCMz/dCL provided in the direct solution file: 0.0119649.
Viscous flow: Computing pressure using the ideal gas law
based on the free-stream temperature and a density computed
from the Reynolds number.
Force coefficients computed using free-stream values.

-- Models:
+------------------------------------------------------------------------------+
|          Viscosity Model|        Conductivity Model|              Fluid Model|
+------------------------------------------------------------------------------+
|               SUTHERLAND|          CONSTANT_PRANDTL|             STANDARD_AIR|
+------------------------------------------------------------------------------+
-- Fluid properties:
+------------------------------------------------------------------------------+
|                  Name|    Dim. value|    Ref. value|      Unit|Non-dim. value|
+------------------------------------------------------------------------------+
|        Ref. Viscosity|     1.716e-05|             1|   N.s/m^2|     1.716e-05|
|      Sutherland Temp.|        273.15|             1|         K|        273.15|
|     Sutherland Const.|         110.4|             1|         K|         110.4|
+------------------------------------------------------------------------------+
|        Prandtl (Lam.)|             -|             -|         -|          0.71|
|       Prandtl (Turb.)|             -|             -|         -|           0.9|
+------------------------------------------------------------------------------+
|          Gas Constant|       287.058|             1|  N.m/kg.K|       287.058|
|      Spec. Heat Ratio|             -|             -|         -|           1.4|
+------------------------------------------------------------------------------+
-- Initial and free-stream conditions:
+------------------------------------------------------------------------------+
|                  Name|    Dim. value|    Ref. value|      Unit|Non-dim. value|
+------------------------------------------------------------------------------+
|       Static Pressure|         38515|             1|        Pa|         38515|
|               Density|      0.465631|             1|    kg/m^3|      0.465631|
|           Temperature|        288.15|             1|         K|        288.15|
|          Total Energy|        237984|             1|   m^2/s^2|        237984|
|            Velocity-X|       249.488|             1|       m/s|       249.488|
|            Velocity-Y|       12.0379|             1|       m/s|       12.0379|
|    Velocity Magnitude|       249.778|             1|       m/s|       249.778|
+------------------------------------------------------------------------------+
|             Viscosity|    1.7893e-05|             1|   N.s/m^2|    1.7893e-05|
|          Conductivity|             -|             1|   W/m^2.K|             -|
|     Turb. Kin. Energy|       233.959|             1|   m^2/s^2|       233.959|
|     Spec. Dissipation|        608834|             1|       1/s|        608834|
+------------------------------------------------------------------------------+
|           Mach Number|             -|             -|         -|         0.734|
|       Reynolds Number|             -|             -|         -|       6.5e+06|
+------------------------------------------------------------------------------+
Initialize Jacobian structure (Navier-Stokes). MG level: 0.
Initialize Jacobian structure (SA model).

------------------- Numerics Preprocessing ( Zone 0 ) -------------------

----------------- Integration Preprocessing ( Zone 0 ) ------------------

------------------- Iteration Preprocessing ( Zone 0 ) ------------------
Euler/Navier-Stokes/RANS fluid iteration.

------------------------------ Begin Solver -----------------------------

Simulation Run using the Single-zone Driver
WARNING: SU2 was not compiled for an AVX-capable architecture. Performance could be better,
         see https://su2code.github.io/docs_v7/Build-SU2-Linux-MacOS/#compiler-optimizations
+----------------------------------------------------------------+
|  Inner_Iter|    rms[Rho]|     rms[nu]|          CL|          CD|
+----------------------------------------------------------------+
|           0|   -2.978340|   -4.345962|    0.831093|    0.017172|
|           1|   -3.036143|   -4.456721|    0.834834|    0.020228|
|           2|   -3.100087|   -4.587949|    0.835730|    0.022027|
|           3|   -3.146598|   -4.736308|    0.834994|    0.022872|
|           4|   -3.174195|   -4.892128|    0.833765|    0.023127|
|           5|   -3.187943|   -5.011725|    0.832745|    0.023090|
|           6|   -3.192538|   -5.035469|    0.832192|    0.022957|
|           7|   -3.191958|   -5.003164|    0.832089|    0.022834|
|           8|   -3.189195|   -4.973268|    0.832313|    0.022766|
|           9|   -3.185598|   -4.955795|    0.832748|    0.022766|
|          10|   -3.181064|   -4.943011|    0.833314|    0.022835|
|          11|   -3.174956|   -4.924885|    0.833963|    0.022969|
|          12|   -3.166930|   -4.901649|    0.834656|    0.023162|
|          13|   -3.157220|   -4.877356|    0.835351|    0.023407|
|          14|   -3.146454|   -4.857745|    0.836004|    0.023692|
|          15|   -3.135360|   -4.845544|    0.836563|    0.024007|
|          16|   -3.124580|   -4.843190|    0.836982|    0.024336|
|          17|   -3.114624|   -4.848292|    0.837215|    0.024664|
|          18|   -3.105904|   -4.859351|    0.837228|    0.024976|
|          19|   -3.098766|   -4.873408|    0.836992|    0.025259|
|          20|   -3.093497|   -4.886945|    0.836490|    0.025500|
|          21|   -3.090286|   -4.896919|    0.835714|    0.025690|
|          22|   -3.089180|   -4.901054|    0.834666|    0.025824|
|          23|   -3.090045|   -4.898727|    0.833360|    0.025897|
|          24|   -3.092564|   -4.894056|    0.831816|    0.025907|
|          25|   -3.096260|   -4.888945|    0.830067|    0.025853|
|          26|   -3.100571|   -4.886005|    0.828149|    0.025736|
|          27|   -3.104928|   -4.887519|    0.826104|    0.025554|
|          28|   -3.108841|   -4.893504|    0.823975|    0.025311|
|          29|   -3.111940|   -4.903813|    0.821805|    0.025004|
|          30|   -3.113994|   -4.917034|    0.819635|    0.024637|
|          31|   -3.114888|   -4.931335|    0.817500|    0.024209|
|          32|   -3.114606|   -4.944751|    0.815431|    0.023723|
|          33|   -3.113204|   -4.955829|    0.813451|    0.023181|
|          34|   -3.110808|   -4.964333|    0.811578|    0.022588|
|          35|   -3.107607|   -4.970577|    0.809826|    0.021948|
|          36|   -3.103840|   -4.976068|    0.808201|    0.021270|
|          37|   -3.099769|   -4.981452|    0.806708|    0.020560|
|          38|   -3.095647|   -4.986825|    0.805349|    0.019829|
|          39|   -3.091682|   -4.993215|    0.804124|    0.019087|
|          40|   -3.088016|   -5.000311|    0.803033|    0.018345|
|          41|   -3.084709|   -5.008265|    0.802073|    0.017612|
|          42|   -3.081748|   -5.016506|    0.801245|    0.016899|
|          43|   -3.079058|   -5.024583|    0.800547|    0.016214|
|          44|   -3.076525|   -5.032336|    0.799981|    0.015564|
|          45|   -3.074022|   -5.038688|    0.799545|    0.014954|
|          46|   -3.071424|   -5.042751|    0.799240|    0.014387|
|          47|   -3.068628|   -5.044557|    0.799068|    0.013865|
|          48|   -3.065556|   -5.043746|    0.799029|    0.013386|
|          49|   -3.062157|   -5.039997|    0.799124|    0.012950|
|          50|   -3.058398|   -5.034344|    0.799354|    0.012553|
|          51|   -3.054262|   -5.027254|    0.799717|    0.012191|
|          52|   -3.049740|   -5.019423|    0.800212|    0.011861|
|          53|   -3.044825|   -5.011921|    0.800837|    0.011557|
|          54|   -3.039522|   -5.005685|    0.801587|    0.011277|
|          55|   -3.033842|   -5.001038|    0.802456|    0.011016|
|          56|   -3.027813|   -4.998608|    0.803437|    0.010772|
|          57|   -3.021473|   -4.998333|    0.804518|    0.010542|
|          58|   -3.014876|   -5.000564|    0.805690|    0.010326|
|          59|   -3.008084|   -5.004990|    0.806938|    0.010122|
|          60|   -3.001163|   -5.011331|    0.808247|    0.009929|
|          61|   -2.994181|   -5.019173|    0.809599|    0.009749|
|          62|   -2.987194|   -5.028096|    0.810979|    0.009580|
|          63|   -2.980253|   -5.038007|    0.812365|    0.009424|
|          64|   -2.973397|   -5.048297|    0.813741|    0.009281|
|          65|   -2.966655|   -5.058458|    0.815087|    0.009150|
|          66|   -2.960050|   -5.068392|    0.816387|    0.009033|
|          67|   -2.953600|   -5.077386|    0.817623|    0.008928|
|          68|   -2.947320|   -5.085275|    0.818783|    0.008835|
|          69|   -2.941232|   -5.091947|    0.819853|    0.008754|
|          70|   -2.935353|   -5.097578|    0.820825|    0.008684|
|          71|   -2.929704|   -5.101770|    0.821693|    0.008623|
|          72|   -2.924304|   -5.104681|    0.822452|    0.008571|
|          73|   -2.919169|   -5.106332|    0.823103|    0.008526|
|          74|   -2.914308|   -5.107168|    0.823647|    0.008489|
|          75|   -2.909723|   -5.107638|    0.824089|    0.008457|
|          76|   -2.905410|   -5.107435|    0.824435|    0.008431|
|          77|   -2.901356|   -5.106782|    0.824693|    0.008409|
|          78|   -2.897540|   -5.105744|    0.824873|    0.008391|
|          79|   -2.893938|   -5.104224|    0.824984|    0.008378|
|          80|   -2.890526|   -5.102447|    0.825039|    0.008369|
|          81|   -2.887283|   -5.100163|    0.825047|    0.008365|
|          82|   -2.884194|   -5.097556|    0.825019|    0.008366|
|          83|   -2.881252|   -5.094567|    0.824965|    0.008373|
|          84|   -2.878465|   -5.091261|    0.824895|    0.008386|
|          85|   -2.875848|   -5.087963|    0.824816|    0.008407|
|          86|   -2.873427|   -5.084953|    0.824737|    0.008435|
|          87|   -2.871239|   -5.082233|    0.824663|    0.008472|
|          88|   -2.869324|   -5.080077|    0.824599|    0.008519|
|          89|   -2.867725|   -5.078731|    0.824551|    0.008575|
|          90|   -2.866483|   -5.078304|    0.824522|    0.008643|
|          91|   -2.865634|   -5.078842|    0.824514|    0.008721|
|          92|   -2.865205|   -5.080362|    0.824529|    0.008811|
|          93|   -2.865217|   -5.082899|    0.824569|    0.008913|
|          94|   -2.865677|   -5.086164|    0.824634|    0.009027|
|          95|   -2.866580|   -5.090012|    0.824724|    0.009153|
|          96|   -2.867910|   -5.094147|    0.824838|    0.009290|
|          97|   -2.869640|   -5.098458|    0.824977|    0.009440|
|          98|   -2.871730|   -5.103478|    0.825138|    0.009601|
|          99|   -2.874134|   -5.108688|    0.825319|    0.009773|
|         100|   -2.876792|   -5.113374|    0.825518|    0.009955|
|         101|   -2.879641|   -5.117730|    0.825733|    0.010038|
+-----------------------------------------------------------------------+
|Fixed CL Mode                           |Value                         |
+-----------------------------------------------------------------------+
|Current CL                              |0.825733                      |
|Target CL                               |0.824                         |
|Previous AOA                            |2.7624                        |
|Changed AoA by                          |-0.00758775                   |
+-----------------------------------------------------------------------+
+----------------------------------------------------------------+
|  Inner_Iter|    rms[Rho]|     rms[nu]|          CL|          CD|
+----------------------------------------------------------------+
|         102|   -2.296329|   -5.121169|    0.825959|    0.010238|
|         103|   -2.607696|   -5.125445|    0.826193|    0.010446|
|         104|   -2.738364|   -5.129274|    0.826431|    0.010661|
|         105|   -2.775632|   -5.132838|    0.826670|    0.010880|
|         106|   -2.804058|   -5.136249|    0.826905|    0.011103|
|         107|   -2.834118|   -5.139645|    0.827131|    0.011329|
|         108|   -2.861802|   -5.142949|    0.827345|    0.011555|
|         109|   -2.882411|   -5.146314|    0.827543|    0.011780|
|         110|   -2.894672|   -5.149723|    0.827720|    0.012003|
|         111|   -2.900367|   -5.153227|    0.827873|    0.012222|
|         112|   -2.901830|   -5.156784|    0.828000|    0.012435|
|         113|   -2.900700|   -5.160462|    0.828098|    0.012640|
|         114|   -2.898073|   -5.164353|    0.828166|    0.012838|
|         115|   -2.894842|   -5.168492|    0.828202|    0.013025|
|         116|   -2.891722|   -5.172827|    0.828207|    0.013202|
|         117|   -2.889127|   -5.177334|    0.828180|    0.013368|
|         118|   -2.887139|   -5.182041|    0.828124|    0.013522|
|         119|   -2.885601|   -5.186899|    0.828040|    0.013663|
|         120|   -2.884291|   -5.191995|    0.827930|    0.013791|
|         121|   -2.883059|   -5.197191|    0.827799|    0.013907|
|         122|   -2.881881|   -5.202523|    0.827649|    0.014011|
|         123|   -2.880831|   -5.207919|    0.827484|    0.014103|
|         124|   -2.880022|   -5.213287|    0.827308|    0.014184|
|         125|   -2.879560|   -5.218629|    0.827125|    0.014254|
|         126|   -2.879511|   -5.223969|    0.826940|    0.014315|
|         127|   -2.879900|   -5.229499|    0.826755|    0.014368|
|         128|   -2.880704|   -5.235059|    0.826576|    0.014413|
|         129|   -2.881860|   -5.240828|    0.826404|    0.014452|
|         130|   -2.883265|   -5.246562|    0.826243|    0.014486|
|         131|   -2.884789|   -5.252234|    0.826094|    0.014516|
|         132|   -2.886289|   -5.258156|    0.825960|    0.014543|
|         133|   -2.887624|   -5.264101|    0.825842|    0.014568|
|         134|   -2.888666|   -5.270012|    0.825739|    0.014591|
|         135|   -2.889313|   -5.275963|    0.825653|    0.014614|
|         136|   -2.889486|   -5.281748|    0.825581|    0.014636|
|         137|   -2.889136|   -5.287211|    0.825524|    0.014659|
|         138|   -2.888235|   -5.292520|    0.825479|    0.014683|
|         139|   -2.886779|   -5.297410|    0.825444|    0.014707|
|         140|   -2.884783|   -5.301955|    0.825416|    0.014732|
|         141|   -2.882278|   -5.306085|    0.825393|    0.014758|
|         142|   -2.879310|   -5.309910|    0.825372|    0.014784|
|         143|   -2.875936|   -5.313612|    0.825350|    0.014810|
|         144|   -2.872221|   -5.317038|    0.825324|    0.014836|
|         145|   -2.868237|   -5.320039|    0.825290|    0.014860|
|         146|   -2.864058|   -5.322862|    0.825247|    0.014883|
|         147|   -2.859755|   -5.325274|    0.825192|    0.014904|
|         148|   -2.855391|   -5.327495|    0.825122|    0.014921|
|         149|   -2.851023|   -5.329684|    0.825037|    0.014936|
|         150|   -2.846698|   -5.331479|    0.824933|    0.014945|
|         151|   -2.842452|   -5.333098|    0.824811|    0.014951|
|         152|   -2.838313|   -5.334664|    0.824669|    0.014950|
|         153|   -2.834305|   -5.335804|    0.824509|    0.014945|
|         154|   -2.830444|   -5.336736|    0.824329|    0.014933|
|         155|   -2.826744|   -5.337660|    0.824132|    0.014915|
|         156|   -2.823218|   -5.338127|    0.823918|    0.014890|
|         157|   -2.819876|   -5.338278|    0.823690|    0.014859|
|         158|   -2.816730|   -5.338243|    0.823450|    0.014821|
|         159|   -2.813788|   -5.337929|    0.823199|    0.014777|
|         160|   -2.811059|   -5.337161|    0.822941|    0.014726|
|         161|   -2.808552|   -5.336427|    0.822678|    0.014670|
|         162|   -2.806271|   -5.335449|    0.822414|    0.014607|
|         163|   -2.804221|   -5.333934|    0.822150|    0.014540|
|         164|   -2.802404|   -5.332139|    0.821890|    0.014467|
|         165|   -2.800819|   -5.330039|    0.821636|    0.014391|
|         166|   -2.799462|   -5.327960|    0.821391|    0.014310|
|         167|   -2.798326|   -5.325861|    0.821157|    0.014227|
|         168|   -2.797403|   -5.323632|    0.820937|    0.014140|
|         169|   -2.796680|   -5.321411|    0.820731|    0.014051|
|         170|   -2.796142|   -5.319160|    0.820543|    0.013960|
|         171|   -2.795773|   -5.316994|    0.820373|    0.013868|
|         172|   -2.795558|   -5.314959|    0.820222|    0.013776|
|         173|   -2.795478|   -5.313148|    0.820091|    0.013682|
|         174|   -2.795518|   -5.311787|    0.819980|    0.013589|
|         175|   -2.795664|   -5.310677|    0.819890|    0.013495|
|         176|   -2.795903|   -5.309750|    0.819819|    0.013402|
|         177|   -2.796227|   -5.308984|    0.819768|    0.013310|
|         178|   -2.796632|   -5.308385|    0.819735|    0.013218|
|         179|   -2.797117|   -5.307959|    0.819720|    0.013127|
|         180|   -2.797686|   -5.307715|    0.819722|    0.013037|
|         181|   -2.798344|   -5.307617|    0.819739|    0.012947|
|         182|   -2.799102|   -5.307755|    0.819769|    0.012859|
|         183|   -2.799971|   -5.308164|    0.819812|    0.012771|
|         184|   -2.800963|   -5.308452|    0.819865|    0.012685|
|         185|   -2.802091|   -5.308739|    0.819928|    0.012599|
|         186|   -2.803363|   -5.308970|    0.819999|    0.012514|
|         187|   -2.804788|   -5.309190|    0.820075|    0.012430|
|         188|   -2.806367|   -5.309397|    0.820157|    0.012346|
|         189|   -2.808098|   -5.309662|    0.820242|    0.012263|
|         190|   -2.809971|   -5.309784|    0.820330|    0.012181|
|         191|   -2.811970|   -5.310047|    0.820419|    0.012100|
|         192|   -2.814072|   -5.310156|    0.820509|    0.012019|
|         193|   -2.816247|   -5.310253|    0.820598|    0.011939|
|         194|   -2.818457|   -5.310284|    0.820686|    0.011860|
|         195|   -2.820661|   -5.310342|    0.820773|    0.011782|
|         196|   -2.822813|   -5.310524|    0.820858|    0.011705|
|         197|   -2.824865|   -5.310927|    0.820941|    0.011630|
|         198|   -2.826770|   -5.311356|    0.821022|    0.011556|
|         199|   -2.828485|   -5.311939|    0.821100|    0.011485|
|         200|   -2.829973|   -5.312752|    0.821176|    0.011415|
|         201|   -2.831209|   -5.313736|    0.821247|    0.011549|
+-----------------------------------------------------------------------+
|Fixed CL Mode                           |Value                         |
+-----------------------------------------------------------------------+
|Current CL                              |0.821247                      |
|Target CL                               |0.824                         |
|Previous AOA                            |2.75481                       |
|Changed AoA by                          |0.0141201                     |
+-----------------------------------------------------------------------+
+----------------------------------------------------------------+
|  Inner_Iter|    rms[Rho]|     rms[nu]|          CL|          CD|
+----------------------------------------------------------------+
|         202|   -2.037305|   -5.310253|    0.821318|    0.011484|
|         203|   -2.396699|   -5.313970|    0.821386|    0.011422|
|         204|   -2.593576|   -5.316171|    0.821452|    0.011363|
|         205|   -2.647901|   -5.318270|    0.821516|    0.011308|
|         206|   -2.677624|   -5.320432|    0.821577|    0.011255|
|         207|   -2.708836|   -5.322781|    0.821636|    0.011207|
|         208|   -2.739533|   -5.325325|    0.821693|    0.011163|
|         209|   -2.763718|   -5.328065|    0.821749|    0.011122|
|         210|   -2.779260|   -5.331030|    0.821802|    0.011087|
|         211|   -2.788349|   -5.334032|    0.821852|    0.011056|
|         212|   -2.793826|   -5.337117|    0.821901|    0.011029|
|         213|   -2.797336|   -5.340298|    0.821946|    0.011007|
|         214|   -2.799778|   -5.343546|    0.821989|    0.010991|
|         215|   -2.801999|   -5.346832|    0.822030|    0.010979|
|         216|   -2.804839|   -5.350198|    0.822067|    0.010972|
|         217|   -2.808854|   -5.353602|    0.822102|    0.010969|
|         218|   -2.814151|   -5.357161|    0.822135|    0.010972|
|         219|   -2.820487|   -5.360554|    0.822164|    0.010979|
|         220|   -2.827517|   -5.363921|    0.822191|    0.010991|
|         221|   -2.835026|   -5.367319|    0.822215|    0.011008|
|         222|   -2.843005|   -5.370739|    0.822237|    0.011028|
|         223|   -2.851587|   -5.374137|    0.822256|    0.011053|
|         224|   -2.860920|   -5.377633|    0.822273|    0.011082|
|         225|   -2.871080|   -5.381220|    0.822288|    0.011115|
|         226|   -2.882046|   -5.385098|    0.822302|    0.011151|
|         227|   -2.893729|   -5.388976|    0.822315|    0.011191|
|         228|   -2.906010|   -5.392918|    0.822328|    0.011234|
|         229|   -2.918760|   -5.396988|    0.822342|    0.011280|
|         230|   -2.931851|   -5.401284|    0.822356|    0.011328|
|         231|   -2.945155|   -5.405832|    0.822371|    0.011379|
|         232|   -2.958553|   -5.410656|    0.822388|    0.011433|
|         233|   -2.971944|   -5.415819|    0.822407|    0.011488|
|         234|   -2.985244|   -5.421464|    0.822429|    0.011545|
|         235|   -2.998377|   -5.427416|    0.822455|    0.011604|
|         236|   -3.011262|   -5.433711|    0.822485|    0.011665|
|         237|   -3.023794|   -5.440390|    0.822518|    0.011727|
|         238|   -3.035842|   -5.447528|    0.822557|    0.011790|
|         239|   -3.047243|   -5.455126|    0.822601|    0.011854|
|         240|   -3.057817|   -5.463145|    0.822651|    0.011919|
|         241|   -3.067387|   -5.471660|    0.822705|    0.011985|
|         242|   -3.075799|   -5.480607|    0.822765|    0.012051|
|         243|   -3.082957|   -5.489962|    0.822831|    0.012118|
|         244|   -3.088840|   -5.499735|    0.822902|    0.012185|
|         245|   -3.093508|   -5.509909|    0.822977|    0.012253|
|         246|   -3.097093|   -5.520530|    0.823057|    0.012321|
|         247|   -3.099774|   -5.531569|    0.823141|    0.012388|
|         248|   -3.101743|   -5.542980|    0.823229|    0.012456|
|         249|   -3.103185|   -5.554698|    0.823321|    0.012524|
|         250|   -3.104260|   -5.566720|    0.823416|    0.012591|
|         251|   -3.105094|   -5.578980|    0.823513|    0.012659|
|         252|   -3.105783|   -5.591454|    0.823611|    0.012725|
|         253|   -3.106403|   -5.604119|    0.823711|    0.012792|
|         254|   -3.107015|   -5.616907|    0.823810|    0.012857|
|         255|   -3.107678|   -5.629775|    0.823910|    0.012922|
|         256|   -3.108447|   -5.642660|    0.824008|    0.012986|
|         257|   -3.109380|   -5.655505|    0.824104|    0.013050|
|         258|   -3.110533|   -5.668338|    0.824198|    0.013112|
|         259|   -3.111960|   -5.681186|    0.824289|    0.013173|
|         260|   -3.113706|   -5.693964|    0.824376|    0.013232|
|         261|   -3.115811|   -5.706599|    0.824458|    0.013290|
|         262|   -3.118303|   -5.719041|    0.824536|    0.013347|
|         263|   -3.121201|   -5.731174|    0.824608|    0.013402|
|         264|   -3.124517|   -5.742983|    0.824674|    0.013454|
|         265|   -3.128254|   -5.754532|    0.824734|    0.013505|
|         266|   -3.132412|   -5.765580|    0.824787|    0.013554|
|         267|   -3.136987|   -5.776017|    0.824833|    0.013600|
|         268|   -3.141973|   -5.785782|    0.824872|    0.013644|
|         269|   -3.147361|   -5.794822|    0.824902|    0.013686|
|         270|   -3.153144|   -5.803130|    0.824925|    0.013725|
|         271|   -3.159310|   -5.810654|    0.824941|    0.013760|
|         272|   -3.165848|   -5.817292|    0.824948|    0.013794|
|         273|   -3.172743|   -5.823112|    0.824948|    0.013824|
|         274|   -3.179981|   -5.828398|    0.824940|    0.013851|
|         275|   -3.187542|   -5.832703|    0.824925|    0.013874|
|         276|   -3.195408|   -5.836109|    0.824903|    0.013895|
|         277|   -3.203552|   -5.838694|    0.824873|    0.013912|
|         278|   -3.211951|   -5.840607|    0.824837|    0.013927|
|         279|   -3.220574|   -5.841732|    0.824795|    0.013938|
|         280|   -3.229388|   -5.842210|    0.824747|    0.013945|
|         281|   -3.238358|   -5.842128|    0.824693|    0.013950|
|         282|   -3.247445|   -5.841594|    0.824634|    0.013951|
|         283|   -3.256608|   -5.840766|    0.824571|    0.013949|
|         284|   -3.265803|   -5.840092|    0.824503|    0.013944|
|         285|   -3.274985|   -5.839485|    0.824432|    0.013936|
|         286|   -3.284106|   -5.838733|    0.824358|    0.013925|
|         287|   -3.293120|   -5.837905|    0.824281|    0.013911|
|         288|   -3.301981|   -5.837082|    0.824202|    0.013894|
|         289|   -3.310647|   -5.836369|    0.824122|    0.013875|
|         290|   -3.319075|   -5.835898|    0.824040|    0.013853|
|         291|   -3.327230|   -5.835583|    0.823957|    0.013829|
|         292|   -3.335080|   -5.835354|    0.823874|    0.013802|
|         293|   -3.342598|   -5.835195|    0.823790|    0.013773|
|         294|   -3.349764|   -5.835368|    0.823707|    0.013742|
|         295|   -3.356560|   -5.836110|    0.823623|    0.013709|
|         296|   -3.362977|   -5.836803|    0.823541|    0.013674|
|         297|   -3.369010|   -5.837359|    0.823459|    0.013637|
|         298|   -3.374658|   -5.837835|    0.823378|    0.013599|
|         299|   -3.379926|   -5.838362|    0.823298|    0.013559|
|         300|   -3.384820|   -5.838787|    0.823219|    0.013518|
|         301|   -3.389348|   -5.839183|    0.823142|    0.013532|
+-----------------------------------------------------------------------+
|Fixed CL Mode                           |Value                         |
+-----------------------------------------------------------------------+
|Current CL                              |0.823142                      |
|Target CL                               |0.824                         |
|Previous AOA                            |2.76893                       |
|Changed AoA by                          |0.00390303                    |
+-----------------------------------------------------------------------+
+----------------------------------------------------------------+
|  Inner_Iter|    rms[Rho]|     rms[nu]|          CL|          CD|
+----------------------------------------------------------------+
|         302|   -2.596595|   -5.835996|    0.823066|    0.013488|
|         303|   -2.956914|   -5.838565|    0.822993|    0.013444|
|         304|   -3.151545|   -5.839671|    0.822922|    0.013398|
|         305|   -3.204529|   -5.840908|    0.822853|    0.013351|
|         306|   -3.236885|   -5.842138|    0.822786|    0.013304|
|         307|   -3.273578|   -5.843162|    0.822721|    0.013256|
|         308|   -3.311200|   -5.844493|    0.822660|    0.013207|
|         309|   -3.342095|   -5.845648|    0.822602|    0.013158|
|         310|   -3.362813|   -5.846634|    0.822547|    0.013108|
|         311|   -3.375273|   -5.847593|    0.822495|    0.013058|
|         312|   -3.382659|   -5.848793|    0.822448|    0.013008|
|         313|   -3.386900|   -5.850156|    0.822406|    0.012958|
|         314|   -3.389011|   -5.851716|    0.822368|    0.012908|
|         315|   -3.389915|   -5.853824|    0.822335|    0.012857|
|         316|   -3.390540|   -5.856380|    0.822308|    0.012807|
|         317|   -3.391490|   -5.859035|    0.822287|    0.012757|
|         318|   -3.392855|   -5.861842|    0.822272|    0.012707|
|         319|   -3.394329|   -5.864822|    0.822264|    0.012658|
|         320|   -3.395515|   -5.868332|    0.822263|    0.012609|
|         321|   -3.396174|   -5.872189|    0.822269|    0.012560|
|         322|   -3.396303|   -5.875915|    0.822282|    0.012512|
|         323|   -3.396042|   -5.879840|    0.822303|    0.012465|
|         324|   -3.395535|   -5.883891|    0.822331|    0.012418|
|         325|   -3.394854|   -5.887996|    0.822368|    0.012372|
|         326|   -3.394000|   -5.892400|    0.822412|    0.012327|
|         327|   -3.392950|   -5.896946|    0.822465|    0.012282|
|         328|   -3.391696|   -5.901467|    0.822525|    0.012239|
|         329|   -3.390265|   -5.906045|    0.822593|    0.012196|
|         330|   -3.388714|   -5.910490|    0.822668|    0.012154|
|         331|   -3.387124|   -5.914835|    0.822751|    0.012113|
|         332|   -3.385587|   -5.919651|    0.822841|    0.012073|
|         333|   -3.384201|   -5.924365|    0.822938|    0.012035|
|         334|   -3.383054|   -5.928537|    0.823040|    0.011997|
|         335|   -3.382217|   -5.932451|    0.823149|    0.011960|
|         336|   -3.381739|   -5.936092|    0.823263|    0.011925|
|         337|   -3.381641|   -5.939342|    0.823381|    0.011890|
|         338|   -3.381924|   -5.942261|    0.823504|    0.011857|
|         339|   -3.382569|   -5.944875|    0.823630|    0.011825|
|         340|   -3.383549|   -5.947294|    0.823759|    0.011794|
|         341|   -3.384836|   -5.949482|    0.823891|    0.011765|
|         342|   -3.386410|   -5.951212|    0.824024|    0.011737|
|         343|   -3.388259|   -5.953069|    0.824157|    0.011710|
|         344|   -3.390384|   -5.954369|    0.824292|    0.011684|
|         345|   -3.392801|   -5.955050|    0.824426|    0.011660|
|         346|   -3.395534|   -5.955465|    0.824559|    0.011637|
|         347|   -3.398610|   -5.955576|    0.824691|    0.011616|
|         348|   -3.402054|   -5.955376|    0.824820|    0.011596|
|         349|   -3.405883|   -5.954993|    0.824947|    0.011578|
|         350|   -3.410105|   -5.954508|    0.825072|    0.011561|
|         351|   -3.414718|   -5.953978|    0.825192|    0.011546|
|         352|   -3.419713|   -5.953797|    0.825310|    0.011532|
|         353|   -3.425074|   -5.953547|    0.825422|    0.011521|
|         354|   -3.430782|   -5.953347|    0.825531|    0.011511|
|         355|   -3.436817|   -5.953337|    0.825635|    0.011502|
|         356|   -3.443161|   -5.953369|    0.825734|    0.011496|
|         357|   -3.449797|   -5.953602|    0.825828|    0.011491|
|         358|   -3.456705|   -5.954098|    0.825917|    0.011488|
|         359|   -3.463867|   -5.954933|    0.826001|    0.011488|
|         360|   -3.471260|   -5.956102|    0.826081|    0.011489|
|         361|   -3.478857|   -5.957512|    0.826154|    0.011492|
|         362|   -3.486626|   -5.959206|    0.826223|    0.011497|
|         363|   -3.494527|   -5.961219|    0.826286|    0.011504|
|         364|   -3.502513|   -5.963353|    0.826344|    0.011514|
|         365|   -3.510531|   -5.965616|    0.826397|    0.011525|
|         366|   -3.518523|   -5.967986|    0.826445|    0.011539|
|         367|   -3.526425|   -5.970524|    0.826487|    0.011554|
|         368|   -3.534171|   -5.973139|    0.826525|    0.011572|
|         369|   -3.541692|   -5.975832|    0.826557|    0.011592|
|         370|   -3.548919|   -5.978641|    0.826585|    0.011614|
|         371|   -3.555782|   -5.981456|    0.826608|    0.011638|
|         372|   -3.562215|   -5.984240|    0.826626|    0.011664|
|         373|   -3.568158|   -5.986945|    0.826640|    0.011693|
|         374|   -3.573559|   -5.989565|    0.826649|    0.011723|
|         375|   -3.578373|   -5.992081|    0.826653|    0.011755|
|         376|   -3.582569|   -5.994475|    0.826653|    0.011788|
|         377|   -3.586125|   -5.996863|    0.826648|    0.011824|
|         378|   -3.589033|   -5.999152|    0.826639|    0.011861|
|         379|   -3.591301|   -6.001352|    0.826626|    0.011900|
|         380|   -3.592949|   -6.003479|    0.826607|    0.011941|
|         381|   -3.594010|   -6.005556|    0.826585|    0.011983|
|         382|   -3.594528|   -6.007613|    0.826558|    0.012027|
|         383|   -3.594556|   -6.009671|    0.826527|    0.012071|
|         384|   -3.594151|   -6.011717|    0.826491|    0.012117|
|         385|   -3.593377|   -6.013803|    0.826452|    0.012164|
|         386|   -3.592297|   -6.015938|    0.826408|    0.012212|
|         387|   -3.590976|   -6.018075|    0.826361|    0.012261|
|         388|   -3.589476|   -6.020239|    0.826310|    0.012310|
|         389|   -3.587855|   -6.022411|    0.826255|    0.012360|
|         390|   -3.586167|   -6.024606|    0.826196|    0.012410|
|         391|   -3.584458|   -6.026790|    0.826134|    0.012461|
|         392|   -3.582770|   -6.028927|    0.826069|    0.012512|
|         393|   -3.581140|   -6.031004|    0.826000|    0.012563|
|         394|   -3.579597|   -6.032967|    0.825929|    0.012613|
|         395|   -3.578167|   -6.034797|    0.825854|    0.012664|
|         396|   -3.576868|   -6.036467|    0.825777|    0.012714|
|         397|   -3.575714|   -6.037943|    0.825697|    0.012763|
|         398|   -3.574715|   -6.039147|    0.825614|    0.012812|
|         399|   -3.573877|   -6.040054|    0.825530|    0.012860|
|         400|   -3.573202|   -6.040622|    0.825443|    0.012906|
|         401|   -3.572689|   -6.040764|    0.825357|    0.012848|
+-----------------------------------------------------------------------+
|Fixed CL Mode                           |Value                         |
+-----------------------------------------------------------------------+
|Current CL                              |0.825357                      |
|Target CL                               |0.824                         |
|Previous AOA                            |2.77283                       |
|Changed AoA by                          |-0.00721709                   |
+-----------------------------------------------------------------------+
+----------------------------------------------------------------+
|  Inner_Iter|    rms[Rho]|     rms[nu]|          CL|          CD|
+----------------------------------------------------------------+
|         402|   -2.334436|   -6.007831|    0.825267|    0.012893|
|         403|   -2.716818|   -6.023333|    0.825176|    0.012936|
|         404|   -2.955849|   -6.027119|    0.825084|    0.012977|
|         405|   -3.030910|   -6.027995|    0.824990|    0.013017|
|         406|   -3.080334|   -6.027300|    0.824897|    0.013056|
|         407|   -3.142689|   -6.025400|    0.824803|    0.013092|
|         408|   -3.216314|   -6.022469|    0.824709|    0.013127|
|         409|   -3.287538|   -6.018676|    0.824615|    0.013159|
|         410|   -3.342654|   -6.014169|    0.824521|    0.013189|
|         411|   -3.378409|   -6.009045|    0.824428|    0.013218|
|         412|   -3.399532|   -6.003446|    0.824336|    0.013244|
|         413|   -3.410799|   -5.997537|    0.824246|    0.013267|
|         414|   -3.415608|   -5.991441|    0.824157|    0.013289|
|         415|   -3.417581|   -5.985271|    0.824069|    0.013308|
|         416|   -3.420336|   -5.979133|    0.823984|    0.013324|
|         417|   -3.426150|   -5.973108|    0.823900|    0.013338|
|         418|   -3.435341|   -5.967275|    0.823820|    0.013350|
|         419|   -3.446675|   -5.961696|    0.823742|    0.013359|
|         420|   -3.458386|   -5.956428|    0.823667|    0.013366|
|         421|   -3.469214|   -5.951533|    0.823595|    0.013370|
|         422|   -3.478901|   -5.947068|    0.823526|    0.013372|
|         423|   -3.487954|   -5.943044|    0.823461|    0.013372|
|         424|   -3.497032|   -5.939495|    0.823400|    0.013369|
|         425|   -3.506477|   -5.936448|    0.823343|    0.013363|
|         426|   -3.516218|   -5.933920|    0.823289|    0.013355|
|         427|   -3.525930|   -5.931930|    0.823240|    0.013345|
|         428|   -3.535244|   -5.930491|    0.823194|    0.013333|
|         429|   -3.543884|   -5.929615|    0.823153|    0.013318|
|         430|   -3.551711|   -5.929301|    0.823115|    0.013302|
|         431|   -3.558737|   -5.929553|    0.823082|    0.013283|
|         432|   -3.565117|   -5.930357|    0.823053|    0.013262|
|         433|   -3.571131|   -5.931667|    0.823027|    0.013240|
|         434|   -3.577133|   -5.933514|    0.823006|    0.013215|
|         435|   -3.583471|   -5.935889|    0.822988|    0.013188|
|         436|   -3.590410|   -5.938772|    0.822974|    0.013160|
|         437|   -3.598075|   -5.942129|    0.822964|    0.013130|
|         438|   -3.606433|   -5.945958|    0.822957|    0.013099|
|         439|   -3.615295|   -5.950191|    0.822953|    0.013066|
|         440|   -3.624352|   -5.954791|    0.822952|    0.013032|
|         441|   -3.633222|   -5.959737|    0.822954|    0.012996|
|         442|   -3.641526|   -5.964977|    0.822959|    0.012959|
|         443|   -3.648957|   -5.970467|    0.822966|    0.012921|
|         444|   -3.655354|   -5.976165|    0.822976|    0.012882|
|         445|   -3.660719|   -5.982044|    0.822988|    0.012842|
|         446|   -3.665201|   -5.988064|    0.823001|    0.012801|
|         447|   -3.669032|   -5.994214|    0.823016|    0.012759|
|         448|   -3.672454|   -6.000446|    0.823032|    0.012717|
|         449|   -3.675649|   -6.006683|    0.823050|    0.012674|
|         450|   -3.678712|   -6.012865|    0.823068|    0.012631|
|         451|   -3.681638|   -6.018949|    0.823086|    0.012587|
|         452|   -3.684346|   -6.024882|    0.823105|    0.012543|
|         453|   -3.686718|   -6.030576|    0.823124|    0.012499|
|         454|   -3.688632|   -6.036025|    0.823142|    0.012454|
|         455|   -3.690003|   -6.041169|    0.823161|    0.012410|
|         456|   -3.690797|   -6.045980|    0.823179|    0.012366|
|         457|   -3.691035|   -6.050422|    0.823197|    0.012322|
|         458|   -3.690785|   -6.054536|    0.823213|    0.012278|
|         459|   -3.690148|   -6.058235|    0.823230|    0.012235|
|         460|   -3.689231|   -6.061518|    0.823245|    0.012193|
|         461|   -3.688138|   -6.064401|    0.823260|    0.012151|
|         462|   -3.686961|   -6.066887|    0.823275|    0.012109|
|         463|   -3.685769|   -6.069025|    0.823288|    0.012069|
|         464|   -3.684619|   -6.070832|    0.823302|    0.012029|
|         465|   -3.683554|   -6.072349|    0.823315|    0.011991|
|         466|   -3.682609|   -6.073578|    0.823327|    0.011954|
|         467|   -3.681815|   -6.074509|    0.823340|    0.011918|
|         468|   -3.681201|   -6.075719|    0.823353|    0.011883|
|         469|   -3.680797|   -6.076743|    0.823366|    0.011849|
|         470|   -3.680630|   -6.077591|    0.823380|    0.011817|
|         471|   -3.680724|   -6.078298|    0.823395|    0.011787|
|         472|   -3.681103|   -6.078894|    0.823411|    0.011758|
|         473|   -3.681787|   -6.079323|    0.823429|    0.011731|
|         474|   -3.682792|   -6.079824|    0.823448|    0.011706|
|         475|   -3.684130|   -6.080206|    0.823469|    0.011682|
|         476|   -3.685808|   -6.080464|    0.823492|    0.011661|
|         477|   -3.687834|   -6.080622|    0.823517|    0.011641|
|         478|   -3.690210|   -6.080642|    0.823544|    0.011623|
|         479|   -3.692935|   -6.080513|    0.823574|    0.011607|
|         480|   -3.696009|   -6.080276|    0.823606|    0.011593|
|         481|   -3.699425|   -6.080041|    0.823640|    0.011581|
|         482|   -3.703177|   -6.079730|    0.823677|    0.011570|
|         483|   -3.707254|   -6.079372|    0.823716|    0.011562|
|         484|   -3.711644|   -6.079008|    0.823757|    0.011556|
|         485|   -3.716330|   -6.078650|    0.823800|    0.011551|
|         486|   -3.721295|   -6.078333|    0.823846|    0.011549|
|         487|   -3.726517|   -6.078140|    0.823893|    0.011548|
|         488|   -3.731971|   -6.078248|    0.823941|    0.011549|
|         489|   -3.737631|   -6.078465|    0.823991|    0.011552|
|         490|   -3.743465|   -6.078768|    0.824042|    0.011556|
|         491|   -3.749440|   -6.079188|    0.824093|    0.011562|
|         492|   -3.755522|   -6.079756|    0.824145|    0.011570|
|         493|   -3.761671|   -6.080515|    0.824197|    0.011579|
|         494|   -3.767847|   -6.081493|    0.824249|    0.011590|
|         495|   -3.774009|   -6.082881|    0.824301|    0.011602|
|         496|   -3.780115|   -6.084537|    0.824352|    0.011616|
|         497|   -3.786120|   -6.086478|    0.824402|    0.011630|
|         498|   -3.791980|   -6.088699|    0.824451|    0.011646|
|         499|   -3.797654|   -6.091224|    0.824499|    0.011664|
|         500|   -3.803098|   -6.094062|    0.824545|    0.011682|
|         501|   -3.808274|   -6.097204|    0.824590|    0.011662|
+-----------------------------------------------------------------------+
|Fixed CL Mode                           |Value                         |
+-----------------------------------------------------------------------+
|Current CL                              |0.82459                       |
|Target CL                               |0.824                         |
|Previous AOA                            |2.76561                       |
|Changed AoA by                          |-0.00272388                   |
+-----------------------------------------------------------------------+
+----------------------------------------------------------------+
|  Inner_Iter|    rms[Rho]|     rms[nu]|          CL|          CD|
+----------------------------------------------------------------+
|         502|   -2.756998|   -6.094712|    0.824632|    0.011682|
|         503|   -3.136528|   -6.101825|    0.824673|    0.011704|
|         504|   -3.368402|   -6.106947|    0.824711|    0.011726|
|         505|   -3.438130|   -6.111737|    0.824746|    0.011749|
|         506|   -3.482365|   -6.116551|    0.824780|    0.011772|
|         507|   -3.537017|   -6.121465|    0.824810|    0.011797|
|         508|   -3.599229|   -6.126537|    0.824838|    0.011821|
|         509|   -3.656110|   -6.131843|    0.824863|    0.011847|
|         510|   -3.697239|   -6.137427|    0.824884|    0.011873|
|         511|   -3.722206|   -6.143305|    0.824903|    0.011899|
|         512|   -3.736112|   -6.149367|    0.824919|    0.011925|
|         513|   -3.743104|   -6.155626|    0.824931|    0.011952|
|         514|   -3.745770|   -6.162048|    0.824940|    0.011979|
|         515|   -3.746524|   -6.168573|    0.824946|    0.012006|
|         516|   -3.747655|   -6.175229|    0.824948|    0.012034|
|         517|   -3.750536|   -6.181901|    0.824947|    0.012061|
|         518|   -3.755239|   -6.188519|    0.824943|    0.012088|
|         519|   -3.760856|   -6.194988|    0.824935|    0.012115|
|         520|   -3.766230|   -6.201247|    0.824924|    0.012142|
|         521|   -3.770622|   -6.207218|    0.824909|    0.012169|
|         522|   -3.773958|   -6.212825|    0.824890|    0.012195|
|         523|   -3.776604|   -6.217995|    0.824868|    0.012221|
|         524|   -3.778984|   -6.222649|    0.824843|    0.012247|
|         525|   -3.781316|   -6.226727|    0.824814|    0.012272|
|         526|   -3.783589|   -6.230112|    0.824782|    0.012296|
|         527|   -3.785661|   -6.232750|    0.824746|    0.012320|
|         528|   -3.787381|   -6.234651|    0.824707|    0.012344|
|         529|   -3.788654|   -6.235515|    0.824665|    0.012367|
|         530|   -3.789458|   -6.235363|    0.824620|    0.012389|
|         531|   -3.789840|   -6.234275|    0.824571|    0.012410|
|         532|   -3.789915|   -6.232387|    0.824520|    0.012430|
|         533|   -3.789847|   -6.229541|    0.824466|    0.012450|
|         534|   -3.789826|   -6.225704|    0.824409|    0.012469|
|         535|   -3.790031|   -6.221150|    0.824350|    0.012487|
|         536|   -3.790599|   -6.216045|    0.824288|    0.012504|
|         537|   -3.791608|   -6.210556|    0.824225|    0.012521|
|         538|   -3.793070|   -6.204791|    0.824159|    0.012536|
|         539|   -3.794944|   -6.198853|    0.824092|    0.012550|
|         540|   -3.797148|   -6.192830|    0.824023|    0.012564|
|         541|   -3.799588|   -6.186720|    0.823953|    0.012576|
|         542|   -3.802174|   -6.180456|    0.823882|    0.012588|
|         543|   -3.804842|   -6.174250|    0.823809|    0.012598|
|         544|   -3.807572|   -6.168134|    0.823736|    0.012608|
|         545|   -3.810382|   -6.162066|    0.823663|    0.012616|
|         546|   -3.813324|   -6.156104|    0.823589|    0.012624|
|         547|   -3.816467|   -6.150394|    0.823515|    0.012630|
|         548|   -3.819876|   -6.145057|    0.823441|    0.012636|
|         549|   -3.823594|   -6.140107|    0.823368|    0.012641|
|         550|   -3.827638|   -6.135553|    0.823294|    0.012644|
|         551|   -3.831993|   -6.131431|    0.823221|    0.012647|
|         552|   -3.836619|   -6.127795|    0.823149|    0.012649|
|         553|   -3.841459|   -6.124669|    0.823078|    0.012650|
|         554|   -3.846452|   -6.122054|    0.823008|    0.012650|
|         555|   -3.851536|   -6.119945|    0.822938|    0.012649|
|         556|   -3.856660|   -6.118324|    0.822870|    0.012648|
|         557|   -3.861780|   -6.117221|    0.822803|    0.012645|
|         558|   -3.866865|   -6.116630|    0.822737|    0.012642|
|         559|   -3.871886|   -6.116519|    0.822673|    0.012638|
|         560|   -3.876819|   -6.116853|    0.822611|    0.012633|
|         561|   -3.881634|   -6.117580|    0.822550|    0.012627|
|         562|   -3.886301|   -6.118680|    0.822490|    0.012621|
|         563|   -3.890782|   -6.120099|    0.822433|    0.012614|
|         564|   -3.895035|   -6.121853|    0.822377|    0.012606|
|         565|   -3.899018|   -6.123891|    0.822323|    0.012598|
|         566|   -3.902687|   -6.126201|    0.822271|    0.012589|
|         567|   -3.906001|   -6.128764|    0.822221|    0.012580|
|         568|   -3.908925|   -6.131557|    0.822173|    0.012570|
|         569|   -3.911430|   -6.134558|    0.822127|    0.012559|
|         570|   -3.913493|   -6.137719|    0.822084|    0.012548|
|         571|   -3.915101|   -6.140951|    0.822043|    0.012536|
|         572|   -3.916246|   -6.144280|    0.822004|    0.012525|
|         573|   -3.916929|   -6.147693|    0.821967|    0.012512|
|         574|   -3.917157|   -6.151175|    0.821934|    0.012499|
|         575|   -3.916945|   -6.154688|    0.821902|    0.012486|
|         576|   -3.916316|   -6.158208|    0.821874|    0.012473|
|         577|   -3.915296|   -6.161692|    0.821848|    0.012460|
|         578|   -3.913920|   -6.165151|    0.821824|    0.012446|
|         579|   -3.912226|   -6.168569|    0.821804|    0.012432|
|         580|   -3.910255|   -6.171931|    0.821786|    0.012418|
|         581|   -3.908051|   -6.175220|    0.821771|    0.012403|
|         582|   -3.905660|   -6.178424|    0.821759|    0.012389|
|         583|   -3.903128|   -6.181531|    0.821750|    0.012374|
|         584|   -3.900499|   -6.184525|    0.821743|    0.012360|
|         585|   -3.897816|   -6.187405|    0.821739|    0.012345|
|         586|   -3.895121|   -6.190159|    0.821738|    0.012330|
|         587|   -3.892451|   -6.192721|    0.821739|    0.012316|
|         588|   -3.889843|   -6.195054|    0.821743|    0.012301|
|         589|   -3.887330|   -6.197153|    0.821750|    0.012287|
|         590|   -3.884941|   -6.199016|    0.821759|    0.012272|
|         591|   -3.882705|   -6.200651|    0.821770|    0.012258|
|         592|   -3.880644|   -6.202072|    0.821783|    0.012244|
|         593|   -3.878780|   -6.203277|    0.821798|    0.012230|
|         594|   -3.877130|   -6.204298|    0.821816|    0.012217|
|         595|   -3.875709|   -6.205105|    0.821835|    0.012203|
|         596|   -3.874531|   -6.205672|    0.821856|    0.012190|
|         597|   -3.873607|   -6.205992|    0.821878|    0.012177|
|         598|   -3.872943|   -6.206090|    0.821902|    0.012165|
|         599|   -3.872548|   -6.206051|    0.821928|    0.012152|
|         600|   -3.872425|   -6.205759|    0.821954|    0.012141|
|         601|   -3.872577|   -6.205244|    0.821979|    0.012276|
+-----------------------------------------------------------------------+
|Fixed CL Mode                           |Value                         |
+-----------------------------------------------------------------------+
|Current CL                              |0.821979                      |
|Target CL                               |0.824                         |
|Previous AOA                            |2.76289                       |
|Changed AoA by                          |0.0102295                     |
+-----------------------------------------------------------------------+
+----------------------------------------------------------------+
|  Inner_Iter|    rms[Rho]|     rms[nu]|          CL|          CD|
+----------------------------------------------------------------+
|         602|   -2.183484|   -6.090978|    0.822008|    0.012265|
|         603|   -2.568206|   -6.141150|    0.822037|    0.012254|
|         604|   -2.813056|   -6.157253|    0.822066|    0.012244|
|         605|   -2.892060|   -6.165621|    0.822096|    0.012234|
|         606|   -2.945348|   -6.171120|    0.822126|    0.012225|
|         607|   -3.014330|   -6.174940|    0.822157|    0.012216|
|         608|   -3.099332|   -6.177477|    0.822187|    0.012208|
|         609|   -3.187316|   -6.178929|    0.822217|    0.012201|
|         610|   -3.261758|   -6.179566|    0.822247|    0.012193|
|         611|   -3.314797|   -6.179553|    0.822276|    0.012187|
|         612|   -3.348758|   -6.179031|    0.822305|    0.012181|
|         613|   -3.368018|   -6.178194|    0.822333|    0.012175|
|         614|   -3.376616|   -6.177232|    0.822360|    0.012170|
|         615|   -3.380091|   -6.176350|    0.822386|    0.012166|
|         616|   -3.384491|   -6.175595|    0.822411|    0.012162|
|         617|   -3.393814|   -6.175008|    0.822435|    0.012159|
|         618|   -3.408922|   -6.174490|    0.822458|    0.012156|
|         619|   -3.428072|   -6.174107|    0.822479|    0.012154|
|         620|   -3.448323|   -6.173929|    0.822499|    0.012152|
|         621|   -3.467249|   -6.174024|    0.822518|    0.012151|
|         622|   -3.484091|   -6.174352|    0.822535|    0.012151|
|         623|   -3.499645|   -6.174949|    0.822550|    0.012151|
|         624|   -3.515187|   -6.175820|    0.822564|    0.012151|
|         625|   -3.531491|   -6.176987|    0.822576|    0.012153|
|         626|   -3.548502|   -6.178448|    0.822587|    0.012154|
|         627|   -3.565552|   -6.180205|    0.822597|    0.012156|
|         628|   -3.581752|   -6.182176|    0.822605|    0.012159|
|         629|   -3.596298|   -6.184379|    0.822612|    0.012162|
|         630|   -3.608634|   -6.186818|    0.822618|    0.012165|
|         631|   -3.618557|   -6.189510|    0.822623|    0.012169|
|         632|   -3.626283|   -6.192462|    0.822627|    0.012174|
|         633|   -3.632444|   -6.195642|    0.822630|    0.012179|
|         634|   -3.637945|   -6.199069|    0.822633|    0.012184|
|         635|   -3.643745|   -6.202750|    0.822635|    0.012190|
|         636|   -3.650630|   -6.206660|    0.822638|    0.012196|
|         637|   -3.659080|   -6.210765|    0.822640|    0.012202|
|         638|   -3.669204|   -6.214935|    0.822643|    0.012209|
|         639|   -3.680745|   -6.219169|    0.822646|    0.012217|
|         640|   -3.693121|   -6.223444|    0.822649|    0.012224|
|         641|   -3.705520|   -6.227717|    0.822654|    0.012232|
|         642|   -3.717052|   -6.231916|    0.822659|    0.012241|
|         643|   -3.726971|   -6.236012|    0.822666|    0.012249|
|         644|   -3.734882|   -6.239936|    0.822674|    0.012258|
|         645|   -3.740852|   -6.243714|    0.822684|    0.012268|
|         646|   -3.745370|   -6.247237|    0.822696|    0.012278|
|         647|   -3.749160|   -6.250458|    0.822710|    0.012288|
|         648|   -3.752958|   -6.253306|    0.822726|    0.012298|
|         649|   -3.757333|   -6.255775|    0.822745|    0.012309|
|         650|   -3.762588|   -6.257837|    0.822767|    0.012319|
|         651|   -3.768753|   -6.259483|    0.822792|    0.012331|
|         652|   -3.775626|   -6.260707|    0.822820|    0.012342|
|         653|   -3.782863|   -6.261523|    0.822851|    0.012354|
|         654|   -3.790068|   -6.261950|    0.822885|    0.012366|
|         655|   -3.796896|   -6.262012|    0.822923|    0.012378|
|         656|   -3.803114|   -6.261775|    0.822964|    0.012390|
|         657|   -3.808636|   -6.261305|    0.823009|    0.012402|
|         658|   -3.813518|   -6.260662|    0.823057|    0.012415|
|         659|   -3.817910|   -6.259963|    0.823109|    0.012428|
|         660|   -3.822012|   -6.259230|    0.823163|    0.012440|
|         661|   -3.826017|   -6.258539|    0.823221|    0.012453|
|         662|   -3.830081|   -6.257969|    0.823281|    0.012466|
|         663|   -3.834308|   -6.257608|    0.823343|    0.012479|
|         664|   -3.838752|   -6.257548|    0.823407|    0.012492|
|         665|   -3.843430|   -6.257850|    0.823473|    0.012504|
|         666|   -3.848335|   -6.258571|    0.823540|    0.012517|
|         667|   -3.853451|   -6.259730|    0.823608|    0.012529|
|         668|   -3.858767|   -6.261378|    0.823676|    0.012541|
|         669|   -3.864277|   -6.263606|    0.823744|    0.012553|
|         670|   -3.869983|   -6.266406|    0.823811|    0.012564|
|         671|   -3.875892|   -6.269741|    0.823877|    0.012575|
|         672|   -3.882009|   -6.273549|    0.823940|    0.012585|
|         673|   -3.888338|   -6.277765|    0.824001|    0.012595|
|         674|   -3.894874|   -6.282319|    0.824059|    0.012605|
|         675|   -3.901611|   -6.287127|    0.824114|    0.012614|
|         676|   -3.908532|   -6.292088|    0.824165|    0.012622|
|         677|   -3.915619|   -6.297092|    0.824212|    0.012630|
|         678|   -3.922848|   -6.302039|    0.824253|    0.012638|
|         679|   -3.930193|   -6.306843|    0.824290|    0.012644|
|         680|   -3.937630|   -6.311404|    0.824322|    0.012650|
|         681|   -3.945130|   -6.315638|    0.824348|    0.012655|
|         682|   -3.952665|   -6.319476|    0.824369|    0.012660|
|         683|   -3.960209|   -6.322859|    0.824384|    0.012664|
|         684|   -3.967729|   -6.325774|    0.824394|    0.012667|
|         685|   -3.975197|   -6.328235|    0.824398|    0.012670|
|         686|   -3.982580|   -6.330272|    0.824396|    0.012672|
|         687|   -3.989847|   -6.331964|    0.824389|    0.012673|
|         688|   -3.996964|   -6.333381|    0.824377|    0.012674|
|         689|   -4.003900|   -6.334613|    0.824361|    0.012674|
|         690|   -4.010621|   -6.335779|    0.824339|    0.012674|
|         691|   -4.017097|   -6.337008|    0.824313|    0.012673|
|         692|   -4.023297|   -6.338426|    0.824283|    0.012671|
|         693|   -4.029192|   -6.340175|    0.824250|    0.012669|
|         694|   -4.034753|   -6.342366|    0.824213|    0.012667|
|         695|   -4.039953|   -6.345093|    0.824173|    0.012664|
|         696|   -4.044769|   -6.348425|    0.824131|    0.012661|
|         697|   -4.049177|   -6.352417|    0.824087|    0.012657|
|         698|   -4.053159|   -6.357102|    0.824040|    0.012653|
|         699|   -4.056698|   -6.362535|    0.823992|    0.012649|
|         700|   -4.059783|   -6.368750|    0.823943|    0.012644|
|         701|   -4.062408|   -6.375767|    0.823893|    0.012643|
+-----------------------------------------------------------------------+
|Fixed CL Mode                           |Value                         |
+-----------------------------------------------------------------------+
|Current CL                              |0.823893                      |
|Target CL                               |0.824                         |
|Previous AOA                            |2.77312                       |
|Changed AoA by                          |0.000283867                   |
+-----------------------------------------------------------------------+
+----------------------------------------------------------------+
|  Inner_Iter|    rms[Rho]|     rms[nu]|          CL|          CD|
+----------------------------------------------------------------+
|         702|   -3.696195|   -6.383316|    0.823843|    0.012638|
|         703|   -3.938015|   -6.392058|    0.823792|    0.012632|
|         704|   -4.009648|   -6.401448|    0.823742|    0.012626|
|         705|   -4.023482|   -6.411506|    0.823691|    0.012620|
|         706|   -4.032145|   -6.422165|    0.823642|    0.012614|
|         707|   -4.041129|   -6.433322|    0.823593|    0.012608|
|         708|   -4.049149|   -6.444867|    0.823545|    0.012601|
|         709|   -4.054927|   -6.456668|    0.823499|    0.012594|
|         710|   -4.058360|   -6.468578|    0.823454|    0.012587|
|         711|   -4.060068|   -6.480441|    0.823411|    0.012579|
|         712|   -4.060659|   -6.492096|    0.823370|    0.012572|
|         713|   -4.060482|   -6.503374|    0.823330|    0.012564|
|         714|   -4.059739|   -6.514101|    0.823293|    0.012557|
|         715|   -4.058613|   -6.524160|    0.823259|    0.012549|
|         716|   -4.057297|   -6.533452|    0.823227|    0.012541|
|         717|   -4.055953|   -6.541891|    0.823197|    0.012533|
|         718|   -4.054689|   -6.549449|    0.823171|    0.012525|
|         719|   -4.053564|   -6.556125|    0.823147|    0.012517|
|         720|   -4.052610|   -6.561868|    0.823126|    0.012508|
|         721|   -4.051857|   -6.566696|    0.823108|    0.012500|
|         722|   -4.051336|   -6.570672|    0.823093|    0.012492|
|         723|   -4.051069|   -6.573909|    0.823081|    0.012484|
|         724|   -4.051066|   -6.576521|    0.823072|    0.012476|
|         725|   -4.051318|   -6.578645|    0.823066|    0.012468|
|         726|   -4.051810|   -6.580355|    0.823063|    0.012459|
|         727|   -4.052529|   -6.581731|    0.823064|    0.012451|
|         728|   -4.053468|   -6.582857|    0.823067|    0.012444|
|         729|   -4.054635|   -6.583822|    0.823072|    0.012436|
|         730|   -4.056045|   -6.584674|    0.823081|    0.012428|
|         731|   -4.057717|   -6.585473|    0.823092|    0.012420|
|         732|   -4.059672|   -6.586242|    0.823105|    0.012413|
|         733|   -4.061930|   -6.586994|    0.823121|    0.012406|
|         734|   -4.064503|   -6.587732|    0.823139|    0.012398|
|         735|   -4.067396|   -6.588441|    0.823158|    0.012391|
|         736|   -4.070605|   -6.589132|    0.823179|    0.012384|
|         737|   -4.074121|   -6.589787|    0.823202|    0.012378|
|         738|   -4.077929|   -6.590382|    0.823226|    0.012371|
|         739|   -4.082010|   -6.590892|    0.823252|    0.012364|
|         740|   -4.086345|   -6.591292|    0.823278|    0.012358|
|         741|   -4.090915|   -6.591546|    0.823304|    0.012352|
|         742|   -4.095703|   -6.591608|    0.823331|    0.012346|
|         743|   -4.100696|   -6.591506|    0.823358|    0.012340|
|         744|   -4.105881|   -6.591283|    0.823385|    0.012335|
|         745|   -4.111247|   -6.590975|    0.823412|    0.012329|
|         746|   -4.116785|   -6.590566|    0.823438|    0.012324|
|         747|   -4.122484|   -6.590063|    0.823464|    0.012319|
|         748|   -4.128334|   -6.589512|    0.823489|    0.012314|
|         749|   -4.134319|   -6.588959|    0.823513|    0.012309|
|         750|   -4.140422|   -6.588477|    0.823536|    0.012304|
|         751|   -4.146623|   -6.588131|    0.823558|    0.012300|
|         752|   -4.152898|   -6.587953|    0.823578|    0.012296|
|         753|   -4.159224|   -6.587991|    0.823597|    0.012292|
|         754|   -4.165575|   -6.588282|    0.823615|    0.012288|
|         755|   -4.171924|   -6.588845|    0.823631|    0.012284|
|         756|   -4.178243|   -6.589684|    0.823646|    0.012280|
|         757|   -4.184503|   -6.590787|    0.823659|    0.012277|
|         758|   -4.190675|   -6.592145|    0.823671|    0.012274|
|         759|   -4.196726|   -6.593704|    0.823682|    0.012271|
|         760|   -4.202625|   -6.595401|    0.823691|    0.012268|
|         761|   -4.208335|   -6.597176|    0.823699|    0.012266|
|         762|   -4.213822|   -6.598999|    0.823705|    0.012264|
|         763|   -4.219047|   -6.600674|    0.823711|    0.012262|
|         764|   -4.223974|   -6.602116|    0.823715|    0.012260|
|         765|   -4.228564|   -6.603235|    0.823719|    0.012259|
|         766|   -4.232782|   -6.603941|    0.823722|    0.012257|
|         767|   -4.236593|   -6.604155|    0.823724|    0.012257|
|         768|   -4.239966|   -6.603814|    0.823726|    0.012256|
|         769|   -4.242876|   -6.602872|    0.823727|    0.012256|
|         770|   -4.245300|   -6.601320|    0.823729|    0.012256|
|         771|   -4.247227|   -6.599167|    0.823729|    0.012256|
|         772|   -4.248646|   -6.596449|    0.823730|    0.012257|
|         773|   -4.249560|   -6.593223|    0.823731|    0.012258|
|         774|   -4.249975|   -6.589564|    0.823732|    0.012259|
|         775|   -4.249907|   -6.585584|    0.823733|    0.012261|
|         776|   -4.249379|   -6.581364|    0.823734|    0.012263|
|         777|   -4.248423|   -6.577006|    0.823735|    0.012266|
|         778|   -4.247074|   -6.572619|    0.823737|    0.012268|
|         779|   -4.245373|   -6.568301|    0.823738|    0.012272|
|         780|   -4.243365|   -6.564114|    0.823741|    0.012275|
|         781|   -4.241101|   -6.560118|    0.823743|    0.012279|
|         782|   -4.238629|   -6.556343|    0.823746|    0.012283|
|         783|   -4.236001|   -6.552832|    0.823748|    0.012287|
|         784|   -4.233268|   -6.549615|    0.823751|    0.012292|
|         785|   -4.230482|   -6.546707|    0.823754|    0.012297|
|         786|   -4.227688|   -6.544127|    0.823757|    0.012302|
|         787|   -4.224934|   -6.541808|    0.823761|    0.012308|
|         788|   -4.222262|   -6.539731|    0.823764|    0.012314|
|         789|   -4.219713|   -6.537868|    0.823767|    0.012320|
|         790|   -4.217322|   -6.536158|    0.823769|    0.012326|
|         791|   -4.215124|   -6.534569|    0.823772|    0.012332|
|         792|   -4.213148|   -6.533061|    0.823774|    0.012339|
|         793|   -4.211422|   -6.531588|    0.823776|    0.012346|
|         794|   -4.209968|   -6.530105|    0.823777|    0.012353|
|         795|   -4.208808|   -6.528566|    0.823778|    0.012360|
|         796|   -4.207959|   -6.526943|    0.823779|    0.012367|
|         797|   -4.207436|   -6.525223|    0.823778|    0.012374|
|         798|   -4.207251|   -6.523392|    0.823778|    0.012381|
|         799|   -4.207413|   -6.521442|    0.823776|    0.012388|
|         800|   -4.207932|   -6.519368|    0.823774|    0.012395|
|         801|   -4.208811|   -6.517178|    0.823772|    0.012418|
+-----------------------------------------------------------------------+
|Fixed CL Mode                           |Value                         |
+-----------------------------------------------------------------------+
|Current CL                              |0.823772                      |
|Target CL                               |0.824                         |
|Previous AOA                            |2.7734                        |
|Changed AoA by                          |0.00112802                    |
+-----------------------------------------------------------------------+
+----------------------------------------------------------------+
|  Inner_Iter|    rms[Rho]|     rms[nu]|          CL|          CD|
+----------------------------------------------------------------+
|         802|   -3.139458|   -6.507430|    0.823768|    0.012425|
|         803|   -3.514447|   -6.508792|    0.823765|    0.012432|
|         804|   -3.735952|   -6.507383|    0.823760|    0.012439|
|         805|   -3.802899|   -6.505470|    0.823756|    0.012446|
|         806|   -3.848431|   -6.503415|    0.823751|    0.012452|
|         807|   -3.905055|   -6.501312|    0.823745|    0.012459|
|         808|   -3.970013|   -6.499196|    0.823739|    0.012465|
|         809|   -4.031402|   -6.497083|    0.823733|    0.012471|
|         810|   -4.079078|   -6.494995|    0.823726|    0.012477|
|         811|   -4.111638|   -6.492948|    0.823720|    0.012482|
|         812|   -4.132975|   -6.490964|    0.823713|    0.012488|
|         813|   -4.146512|   -6.489070|    0.823707|    0.012493|
|         814|   -4.154586|   -6.487292|    0.823700|    0.012498|
|         815|   -4.159828|   -6.485657|    0.823694|    0.012502|
|         816|   -4.165066|   -6.484187|    0.823687|    0.012507|
|         817|   -4.172253|   -6.482904|    0.823681|    0.012511|
|         818|   -4.181848|   -6.481825|    0.823676|    0.012514|
|         819|   -4.193052|   -6.480968|    0.823670|    0.012518|
|         820|   -4.204581|   -6.480354|    0.823665|    0.012521|
|         821|   -4.215470|   -6.480002|    0.823661|    0.012524|
|         822|   -4.225470|   -6.479927|    0.823656|    0.012527|
|         823|   -4.234892|   -6.480143|    0.823653|    0.012529|
|         824|   -4.244178|   -6.480660|    0.823650|    0.012531|
|         825|   -4.253561|   -6.481482|    0.823647|    0.012533|
|         826|   -4.262995|   -6.482612|    0.823645|    0.012534|
|         827|   -4.272266|   -6.484051|    0.823643|    0.012536|
|         828|   -4.281138|   -6.485799|    0.823642|    0.012537|
|         829|   -4.289433|   -6.487852|    0.823641|    0.012537|
|         830|   -4.297052|   -6.490206|    0.823641|    0.012537|
|         831|   -4.303973|   -6.492853|    0.823641|    0.012537|
|         832|   -4.310256|   -6.495787|    0.823642|    0.012537|
|         833|   -4.316036|   -6.498994|    0.823643|    0.012537|
|         834|   -4.321507|   -6.502460|    0.823645|    0.012536|
|         835|   -4.326874|   -6.506172|    0.823647|    0.012535|
|         836|   -4.332299|   -6.510112|    0.823649|    0.012533|
|         837|   -4.337866|   -6.514262|    0.823652|    0.012532|
|         838|   -4.343560|   -6.518603|    0.823655|    0.012530|
|         839|   -4.349276|   -6.523118|    0.823658|    0.012528|
|         840|   -4.354835|   -6.527784|    0.823662|    0.012525|
|         841|   -4.360028|   -6.532582|    0.823666|    0.012523|
|         842|   -4.364654|   -6.537497|    0.823670|    0.012520|
|         843|   -4.368574|   -6.542510|    0.823675|    0.012517|
|         844|   -4.371742|   -6.547607|    0.823679|    0.012514|
|         845|   -4.374214|   -6.552773|    0.823684|    0.012510|
|         846|   -4.376130|   -6.557996|    0.823690|    0.012506|
|         847|   -4.377670|   -6.563266|    0.823696|    0.012502|
|         848|   -4.379011|   -6.568574|    0.823702|    0.012498|
|         849|   -4.380288|   -6.573911|    0.823708|    0.012494|
|         850|   -4.381576|   -6.579269|    0.823715|    0.012490|
|         851|   -4.382890|   -6.584642|    0.823722|    0.012485|
|         852|   -4.384197|   -6.590022|    0.823729|    0.012480|
|         853|   -4.385441|   -6.595403|    0.823737|    0.012475|
|         854|   -4.386566|   -6.600780|    0.823746|    0.012470|
|         855|   -4.387531|   -6.606146|    0.823755|    0.012465|
|         856|   -4.388324|   -6.611507|    0.823764|    0.012460|
|         857|   -4.388963|   -6.616851|    0.823774|    0.012454|
|         858|   -4.389487|   -6.622170|    0.823785|    0.012449|
|         859|   -4.389952|   -6.627461|    0.823796|    0.012443|
|         860|   -4.390419|   -6.632723|    0.823807|    0.012438|
|         861|   -4.390945|   -6.637954|    0.823820|    0.012432|
|         862|   -4.391579|   -6.643155|    0.823832|    0.012426|
|         863|   -4.392361|   -6.648326|    0.823845|    0.012421|
|         864|   -4.393321|   -6.653469|    0.823859|    0.012415|
|         865|   -4.394485|   -6.658585|    0.823873|    0.012409|
|         866|   -4.395872|   -6.663678|    0.823887|    0.012403|
|         867|   -4.397503|   -6.668753|    0.823901|    0.012398|
|         868|   -4.399398|   -6.673813|    0.823916|    0.012392|
|         869|   -4.401574|   -6.678861|    0.823931|    0.012386|
|         870|   -4.404053|   -6.683899|    0.823946|    0.012381|
|         871|   -4.406853|   -6.688929|    0.823961|    0.012375|
|         872|   -4.409991|   -6.693949|    0.823976|    0.012369|
|         873|   -4.413482|   -6.698950|    0.823991|    0.012364|
|         874|   -4.417339|   -6.703926|    0.824005|    0.012358|
|         875|   -4.421571|   -6.708867|    0.824019|    0.012353|
|         876|   -4.426186|   -6.713766|    0.824033|    0.012348|
|         877|   -4.431188|   -6.718612|    0.824046|    0.012343|
|         878|   -4.436579|   -6.723389|    0.824059|    0.012338|
|         879|   -4.442359|   -6.728092|    0.824071|    0.012333|
|         880|   -4.448524|   -6.732713|    0.824083|    0.012328|
|         881|   -4.455071|   -6.737250|    0.824093|    0.012323|
|         882|   -4.461992|   -6.741713|    0.824103|    0.012319|
|         883|   -4.469276|   -6.746083|    0.824113|    0.012314|
|         884|   -4.476911|   -6.750374|    0.824121|    0.012310|
|         885|   -4.484881|   -6.754602|    0.824128|    0.012306|
|         886|   -4.493166|   -6.758786|    0.824135|    0.012302|
|         887|   -4.501743|   -6.762949|    0.824140|    0.012299|
|         888|   -4.510585|   -6.767116|    0.824145|    0.012295|
|         889|   -4.519662|   -6.771318|    0.824149|    0.012292|
|         890|   -4.528939|   -6.775583|    0.824152|    0.012289|
|         891|   -4.538376|   -6.779944|    0.824154|    0.012286|
|         892|   -4.547929|   -6.784428|    0.824155|    0.012283|
|         893|   -4.557552|   -6.789063|    0.824155|    0.012281|
|         894|   -4.567192|   -6.793873|    0.824155|    0.012279|
|         895|   -4.576795|   -6.798874|    0.824154|    0.012277|
|         896|   -4.586302|   -6.804083|    0.824152|    0.012276|
|         897|   -4.595655|   -6.809505|    0.824150|    0.012274|
|         898|   -4.604792|   -6.815137|    0.824147|    0.012273|
|         899|   -4.613654|   -6.820970|    0.824144|    0.012273|
|         900|   -4.622184|   -6.826980|    0.824140|    0.012272|
|         901|   -4.630326|   -6.833140|    0.824135|    0.012262|
+-----------------------------------------------------------------------+
|Fixed CL Mode                           |Value                         |
+-----------------------------------------------------------------------+
|Current CL                              |0.824135                      |
|Target CL                               |0.824                         |
|Previous AOA                            |2.77453                       |
[...]
|        5298|   -6.090864|   -7.830764|    0.824251|    0.012393|
|        5299|   -6.097807|   -7.835142|    0.824251|    0.012393|
|        5300|   -6.104160|   -7.839520|    0.824251|    0.012393|
|        5301|   -6.109912|   -7.843905|    0.824251|    0.012393|
|        5302|   -6.115067|   -7.848298|    0.824251|    0.012393|
|        5303|   -6.119648|   -7.852702|    0.824251|    0.012393|
|        5304|   -6.123691|   -7.857116|    0.824252|    0.012393|
|        5305|   -6.127250|   -7.861541|    0.824252|    0.012393|
|        5306|   -6.130387|   -7.865976|    0.824252|    0.012393|
|        5307|   -6.133172|   -7.870420|    0.824252|    0.012393|
|        5308|   -6.135683|   -7.874874|    0.824252|    0.012393|
|        5309|   -6.137998|   -7.879338|    0.824252|    0.012393|
|        5310|   -6.140197|   -7.883813|    0.824252|    0.012393|
|        5311|   -6.142356|   -7.888303|    0.824252|    0.012393|
|        5312|   -6.144546|   -7.892812|    0.824252|    0.012393|
|        5313|   -6.146834|   -7.897346|    0.824252|    0.012393|
|        5314|   -6.149280|   -7.901909|    0.824252|    0.012393|
|        5315|   -6.151936|   -7.906511|    0.824252|    0.012393|
|        5316|   -6.154847|   -7.911159|    0.824252|    0.012392|
|        5317|   -6.158052|   -7.915861|    0.824253|    0.012392|
|        5318|   -6.161579|   -7.920628|    0.824253|    0.012392|
|        5319|   -6.165451|   -7.925468|    0.824253|    0.012392|
|        5320|   -6.169682|   -7.930392|    0.824253|    0.012392|
|        5321|   -6.174281|   -7.935408|    0.824253|    0.012393|
|        5322|   -6.179246|   -7.940526|    0.824253|    0.012393|
|        5323|   -6.184571|   -7.945753|    0.824253|    0.012393|
|        5324|   -6.190242|   -7.951097|    0.824253|    0.012393|
|        5325|   -6.196238|   -7.956565|    0.824254|    0.012393|
|        5326|   -6.202531|   -7.962162|    0.824254|    0.012393|
|        5327|   -6.209088|   -7.967890|    0.824254|    0.012393|
|        5328|   -6.215868|   -7.973755|    0.824254|    0.012393|
|        5329|   -6.222825|   -7.979756|    0.824254|    0.012393|
|        5330|   -6.229909|   -7.985896|    0.824254|    0.012393|
|        5331|   -6.237063|   -7.992173|    0.824254|    0.012393|
|        5332|   -6.244228|   -7.998588|    0.824255|    0.012393|
|        5333|   -6.251344|   -8.005138|    0.824255|    0.012393|
|        5334|   -6.258348|   -8.011821|    0.824255|    0.012393|
|        5335|   -6.265178|   -8.018636|    0.824255|    0.012393|
|        5336|   -6.271777|   -8.025580|    0.824255|    0.012393|
|        5337|   -6.278091|   -8.032651|    0.824255|    0.012393|
|        5338|   -6.284072|   -8.039845|    0.824256|    0.012393|
|        5339|   -6.289681|   -8.047162|    0.824256|    0.012393|
|        5340|   -6.294889|   -8.054599|    0.824256|    0.012393|
|        5341|   -6.299679|   -8.062154|    0.824256|    0.012393|
|        5342|   -6.304043|   -8.069825|    0.824256|    0.012393|
|        5343|   -6.307987|   -8.077610|    0.824256|    0.012393|
|        5344|   -6.311528|   -8.085508|    0.824257|    0.012393|
|        5345|   -6.314695|   -8.093519|    0.824257|    0.012394|
|        5346|   -6.317523|   -8.101639|    0.824257|    0.012394|
|        5347|   -6.320058|   -8.109868|    0.824257|    0.012394|
|        5348|   -6.322351|   -8.118203|    0.824257|    0.012394|
|        5349|   -6.324457|   -8.126644|    0.824257|    0.012394|
|        5350|   -6.326433|   -8.135185|    0.824257|    0.012394|
|        5351|   -6.328338|   -8.143826|    0.824258|    0.012394|
|        5352|   -6.330230|   -8.152561|    0.824258|    0.012394|
|        5353|   -6.332163|   -8.161387|    0.824258|    0.012394|
|        5354|   -6.334191|   -8.170297|    0.824258|    0.012394|
|        5355|   -6.336361|   -8.179286|    0.824258|    0.012394|
|        5356|   -6.338718|   -8.188346|    0.824258|    0.012394|
|        5357|   -6.341301|   -8.197470|    0.824258|    0.012394|
|        5358|   -6.344144|   -8.206649|    0.824258|    0.012394|
|        5359|   -6.347275|   -8.215873|    0.824259|    0.012394|
|        5360|   -6.350719|   -8.225132|    0.824259|    0.012394|
|        5361|   -6.354492|   -8.234415|    0.824259|    0.012394|
|        5362|   -6.358607|   -8.243708|    0.824259|    0.012394|
|        5363|   -6.363071|   -8.253001|    0.824259|    0.012394|
|        5364|   -6.367885|   -8.262280|    0.824259|    0.012394|
|        5365|   -6.373044|   -8.271532|    0.824259|    0.012395|
|        5366|   -6.378537|   -8.280743|    0.824259|    0.012395|
|        5367|   -6.384348|   -8.289899|    0.824259|    0.012395|
|        5368|   -6.390456|   -8.298988|    0.824259|    0.012395|
|        5369|   -6.396832|   -8.307995|    0.824259|    0.012395|
|        5370|   -6.403442|   -8.316909|    0.824259|    0.012395|
|        5371|   -6.410248|   -8.325716|    0.824259|    0.012395|
|        5372|   -6.417205|   -8.334406|    0.824259|    0.012395|
|        5373|   -6.424264|   -8.342969|    0.824259|    0.012395|
|        5374|   -6.431371|   -8.351395|    0.824259|    0.012395|
|        5375|   -6.438471|   -8.359677|    0.824259|    0.012395|
|        5376|   -6.445503|   -8.367810|    0.824259|    0.012395|
|        5377|   -6.452410|   -8.375788|    0.824259|    0.012395|
|        5378|   -6.459131|   -8.383610|    0.824259|    0.012395|
|        5379|   -6.465611|   -8.391274|    0.824259|    0.012395|
|        5380|   -6.471797|   -8.398783|    0.824259|    0.012395|
|        5381|   -6.477642|   -8.406139|    0.824259|    0.012395|
|        5382|   -6.483107|   -8.413346|    0.824259|    0.012395|
|        5383|   -6.488160|   -8.420412|    0.824259|    0.012395|
|        5384|   -6.492780|   -8.427341|    0.824259|    0.012395|
|        5385|   -6.496954|   -8.434142|    0.824259|    0.012394|
|        5386|   -6.500680|   -8.440821|    0.824259|    0.012394|
|        5387|   -6.503965|   -8.447385|    0.824259|    0.012394|
|        5388|   -6.506825|   -8.453842|    0.824259|    0.012394|
|        5389|   -6.509283|   -8.460196|    0.824259|    0.012394|
|        5390|   -6.511367|   -8.466452|    0.824259|    0.012394|
|        5391|   -6.513107|   -8.472613|    0.824259|    0.012394|
|        5392|   -6.514539|   -8.478680|    0.824259|    0.012394|
|        5393|   -6.515697|   -8.484651|    0.824259|    0.012394|
|        5394|   -6.516614|   -8.490524|    0.824259|    0.012394|
|        5395|   -6.517321|   -8.496293|    0.824259|    0.012394|
|        5396|   -6.517846|   -8.501951|    0.824259|    0.012394|
|        5397|   -6.518215|   -8.507488|    0.824259|    0.012394|
|        5398|   -6.518449|   -8.512894|    0.824259|    0.012394|
|        5399|   -6.518563|   -8.518155|    0.824259|    0.012394|
|        5400|   -6.518570|   -8.523259|    0.824259|    0.012394|
|        5401|   -6.518480|   -8.528190|    0.824260|    0.012393|
|        5402|   -6.518299|   -8.532934|    0.824260|    0.012393|
|        5403|   -6.518030|   -8.537476|    0.824260|    0.012393|
|        5404|   -6.517674|   -8.541803|    0.824260|    0.012393|
|        5405|   -6.517230|   -8.545902|    0.824260|    0.012393|
|        5406|   -6.516699|   -8.549763|    0.824260|    0.012393|
|        5407|   -6.516079|   -8.553374|    0.824260|    0.012393|
|        5408|   -6.515368|   -8.556730|    0.824260|    0.012393|
|        5409|   -6.514565|   -8.559824|    0.824260|    0.012393|
|        5410|   -6.513671|   -8.562652|    0.824260|    0.012393|
|        5411|   -6.512685|   -8.565215|    0.824260|    0.012393|
|        5412|   -6.511610|   -8.567511|    0.824260|    0.012393|
|        5413|   -6.510447|   -8.569544|    0.824260|    0.012392|
|        5414|   -6.509200|   -8.571316|    0.824260|    0.012392|
|        5415|   -6.507873|   -8.572832|    0.824260|    0.012392|
|        5416|   -6.506472|   -8.574098|    0.824260|    0.012392|
|        5417|   -6.505003|   -8.575119|    0.824259|    0.012392|
|        5418|   -6.503471|   -8.575901|    0.824259|    0.012392|
|        5419|   -6.501885|   -8.576451|    0.824259|    0.012392|
|        5420|   -6.500252|   -8.576774|    0.824259|    0.012392|
|        5421|   -6.498581|   -8.576876|    0.824259|    0.012392|
|        5422|   -6.496882|   -8.576764|    0.824259|    0.012392|
|        5423|   -6.495164|   -8.576444|    0.824259|    0.012392|
|        5424|   -6.493440|   -8.575923|    0.824259|    0.012392|
|        5425|   -6.491721|   -8.575208|    0.824259|    0.012391|
|        5426|   -6.490020|   -8.574307|    0.824259|    0.012391|
|        5427|   -6.488352|   -8.573229|    0.824259|    0.012391|
|        5428|   -6.486732|   -8.571985|    0.824259|    0.012391|
|        5429|   -6.485178|   -8.570586|    0.824259|    0.012391|
|        5430|   -6.483708|   -8.569046|    0.824259|    0.012391|
|        5431|   -6.482341|   -8.567378|    0.824259|    0.012391|
|        5432|   -6.481097|   -8.565597|    0.824259|    0.012391|
|        5433|   -6.479998|   -8.563722|    0.824258|    0.012391|
|        5434|   -6.479065|   -8.561768|    0.824258|    0.012391|
|        5435|   -6.478320|   -8.559754|    0.824258|    0.012391|
|        5436|   -6.477786|   -8.557699|    0.824258|    0.012391|
|        5437|   -6.477485|   -8.555621|    0.824258|    0.012391|
|        5438|   -6.477437|   -8.553539|    0.824258|    0.012391|
|        5439|   -6.477663|   -8.551471|    0.824258|    0.012391|
|        5440|   -6.478183|   -8.549434|    0.824258|    0.012391|
|        5441|   -6.479014|   -8.547444|    0.824258|    0.012391|
|        5442|   -6.480173|   -8.545516|    0.824258|    0.012391|
|        5443|   -6.481673|   -8.543663|    0.824258|    0.012391|
|        5444|   -6.483526|   -8.541897|    0.824258|    0.012391|
|        5445|   -6.485741|   -8.540228|    0.824257|    0.012391|
|        5446|   -6.488325|   -8.538666|    0.824257|    0.012391|
|        5447|   -6.491280|   -8.537216|    0.824257|    0.012391|
|        5448|   -6.494606|   -8.535883|    0.824257|    0.012391|
|        5449|   -6.498300|   -8.534672|    0.824257|    0.012391|
|        5450|   -6.502356|   -8.533584|    0.824257|    0.012391|
|        5451|   -6.506761|   -8.532620|    0.824257|    0.012391|
|        5452|   -6.511502|   -8.531779|    0.824257|    0.012391|
|        5453|   -6.516560|   -8.531061|    0.824257|    0.012391|
|        5454|   -6.521912|   -8.530462|    0.824257|    0.012391|
|        5455|   -6.527532|   -8.529980|    0.824257|    0.012391|
|        5456|   -6.533388|   -8.529611|    0.824257|    0.012391|
|        5457|   -6.539445|   -8.529350|    0.824257|    0.012391|
|        5458|   -6.545664|   -8.529194|    0.824256|    0.012391|
|        5459|   -6.552003|   -8.529138|    0.824256|    0.012391|
|        5460|   -6.558416|   -8.529177|    0.824256|    0.012391|
|        5461|   -6.564854|   -8.529308|    0.824256|    0.012391|
|        5462|   -6.571265|   -8.529527|    0.824256|    0.012391|
|        5463|   -6.577596|   -8.529830|    0.824256|    0.012391|
|        5464|   -6.583793|   -8.530213|    0.824256|    0.012391|
|        5465|   -6.589802|   -8.530675|    0.824256|    0.012391|
|        5466|   -6.595570|   -8.531212|    0.824256|    0.012391|
|        5467|   -6.601047|   -8.531822|    0.824256|    0.012392|
|        5468|   -6.606185|   -8.532505|    0.824256|    0.012392|
|        5469|   -6.610942|   -8.533259|    0.824255|    0.012392|
|        5470|   -6.615281|   -8.534082|    0.824255|    0.012392|
|        5471|   -6.619172|   -8.534975|    0.824255|    0.012392|
|        5472|   -6.622592|   -8.535936|    0.824255|    0.012392|
|        5473|   -6.625525|   -8.536967|    0.824255|    0.012392|
|        5474|   -6.627966|   -8.538066|    0.824255|    0.012392|
|        5475|   -6.629915|   -8.539234|    0.824255|    0.012392|
|        5476|   -6.631382|   -8.540471|    0.824255|    0.012392|
|        5477|   -6.632383|   -8.541777|    0.824254|    0.012392|
|        5478|   -6.632941|   -8.543152|    0.824254|    0.012392|
|        5479|   -6.633085|   -8.544596|    0.824254|    0.012392|
|        5480|   -6.632847|   -8.546109|    0.824254|    0.012392|
|        5481|   -6.632263|   -8.547690|    0.824254|    0.012392|
|        5482|   -6.631373|   -8.549341|    0.824254|    0.012392|
|        5483|   -6.630216|   -8.551059|    0.824254|    0.012393|
|        5484|   -6.628832|   -8.552846|    0.824254|    0.012393|
|        5485|   -6.627260|   -8.554702|    0.824253|    0.012393|
|        5486|   -6.625540|   -8.556625|    0.824253|    0.012393|
|        5487|   -6.623707|   -8.558615|    0.824253|    0.012393|
|        5488|   -6.621795|   -8.560674|    0.824253|    0.012393|
|        5489|   -6.619837|   -8.562801|    0.824253|    0.012393|
|        5490|   -6.617860|   -8.564995|    0.824253|    0.012393|
|        5491|   -6.615891|   -8.567259|    0.824252|    0.012393|
|        5492|   -6.613952|   -8.569591|    0.824252|    0.012393|
|        5493|   -6.612064|   -8.571992|    0.824252|    0.012393|
|        5494|   -6.610242|   -8.574464|    0.824252|    0.012393|
|        5495|   -6.608501|   -8.577006|    0.824252|    0.012393|
|        5496|   -6.606853|   -8.579621|    0.824252|    0.012393|
|        5497|   -6.605308|   -8.582308|    0.824252|    0.012393|
|        5498|   -6.603871|   -8.585069|    0.824251|    0.012393|
|        5499|   -6.602550|   -8.587904|    0.824251|    0.012379|
+-----------------------------------------------------------------------+
|Fixed CL Mode (Finite Difference)       |Value                         |
+-----------------------------------------------------------------------+
|Delta CL / Delta AoA                    |0.250996                      |
|Delta CD / Delta CL                     |0.0303501                     |
|Delta CMz / Delta CL                    |0.0368647                     |
+-----------------------------------------------------------------------+
Writing Flow Meta-Data file: flow.meta

----------------------------- Solver Exit -------------------------------

Maximum number of iterations reached (ITER = 5500) before convergence.
+-----------------------------------------------------------------------+
|      Convergence Field     |     Value    |   Criterion  |  Converged |
+-----------------------------------------------------------------------+
|                    rms[Rho]|      -6.60255|         < -12|          No|
+-----------------------------------------------------------------------+
-------------------------------------------------------------------------

--------------------------- Finalizing Solver ---------------------------
Deleted CNumerics container.
Deleted CIntegration container.
Deleted CSolver container.
Deleted CIteration container.
Deleted CInterface container.
Deleted CGeometry container.
Deleted CFreeFormDefBox class.
Deleted CSurfaceMovement class.
Deleted CVolumetricMovement class.
Deleted CConfig container.
Deleted nInst container.
Deleted COutput class.
-------------------------------------------------------------------------

------------------------- Exit Success (SU2_CFD) ------------------------


-------------------------------------------------------------------------
|    ___ _   _ ___                                                      |
|   / __| | | |_  )   Release 8.0.0 "Harrier"                           |
|   \__ \ |_| |/ /                                                      |
|   |___/\___//___|   Suite (Solution Exporting Code)                   |
|                                                                       |
-------------------------------------------------------------------------
| SU2 Project Website: https://su2code.github.io                        |
|                                                                       |
| The SU2 Project is maintained by the SU2 Foundation                   |
| (http://su2foundation.org)                                            |
-------------------------------------------------------------------------
| Copyright 2012-2023, SU2 Contributors                                 |
|                                                                       |
| SU2 is free software; you can redistribute it and/or                  |
| modify it under the terms of the GNU Lesser General Public            |
| License as published by the Free Software Foundation; either          |
| version 2.1 of the License, or (at your option) any later version.    |
|                                                                       |
| SU2 is distributed in the hope that it will be useful,                |
| but WITHOUT ANY WARRANTY; without even the implied warranty of        |
| MERCHANTABILITY or FITNESS FOR A PARTICULAR PURPOSE. See the GNU      |
| Lesser General Public License for more details.                       |
|                                                                       |
| You should have received a copy of the GNU Lesser General Public      |
| License along with SU2. If not, see <http://www.gnu.org/licenses/>.   |
-------------------------------------------------------------------------

----------------- Physical Case Definition ( Zone 0 ) -------------------
Input mesh file name: mesh_RAE2822_turb_deform.su2

-------------------- Output Information ( Zone 0 ) ----------------------
The tabular file format is CSV (.csv).
Flow variables file name: flow.

------------- Config File Boundary Information ( Zone 0 ) ---------------
+-----------------------------------------------------------------------+
|                        Marker Type|                        Marker Name|
+-----------------------------------------------------------------------+
|                          Far-field|                           FARFIELD|
+-----------------------------------------------------------------------+
|                     Heat flux wall|                            AIRFOIL|
+-----------------------------------------------------------------------+
Two dimensional problem.
13937 grid points before partitioning.
22842 volume elements before partitioning.
2 surface markers.
192 boundary elements in index 0 (Marker = AIRFOIL).
40 boundary elements in index 1 (Marker = FARFIELD).
Executing the partitioning functions.
Building the graph adjacency structure.
Calling ParMETIS... graph partitioning complete (831 edge cuts).
Distributing ParMETIS coloring.
Rebalancing vertices.
Rebalancing volume element connectivity.
Rebalancing markers and surface elements.
14875 vertices including ghost points. 
23674 interior elements including halo cells. 
18780 triangles.
4894 quadrilaterals.
Establishing MPI communication patterns.
Identify vertices.
Storing a mapping from global to local point index.

------------------------- Solution Postprocessing -----------------------
Reading and storing the solution from restart_flow.
Volume output fields: COORDINATES, SOLUTION
  Info: Ignoring the following screen output fields:
  RMS_DENSITY, RMS_NU_TILDE, LIFT, DRAG
Screen output fields: INNER_ITER
  Info: Ignoring the following history output groups:
  RMS_RES, AERO_COEFF
History output group(s): ITER
Warning: No (valid) fields chosen for convergence monitoring. Convergence monitoring inactive.
Warning: No (valid) fields chosen for time convergence monitoring. Time convergence monitoring inactive.
|Paraview                           |flow.vtu                           |
|Paraview surface                   |surface_flow.vtu                   |
|CSV file                           |surface_flow.csv                   |

------------------------- Finalize Solver -------------------------
Deleted CGeometry container.
Deleted CSolver class.
Deleted CConfig container.
Deleted COutput class.

Completed in 0.019034 seconds on 6 cores.

------------------------- Exit Success (SU2_SOL) ------------------------

