
-------------------------------------------------------------------------
|    ___ _   _ ___                                                      |
|   / __| | | |_  )   Release 8.0.0 "Harrier"                           |
|   \__ \ |_| |/ /                                                      |
|   |___/\___//___|   Suite (Computational Fluid Dynamics Code)         |
|                                                                       |
-------------------------------------------------------------------------
| SU2 Project Website: https://su2code.github.io                        |
|                                                                       |
| The SU2 Project is maintained by the SU2 Foundation                   |
| (http://su2foundation.org)                                            |
-------------------------------------------------------------------------
| Copyright 2012-2023, SU2 Contributors                                 |
|                                                                       |
| SU2 is free software; you can redistribute it and/or                  |
| modify it under the terms of the GNU Lesser General Public            |
| License as published by the Free Software Foundation; either          |
| version 2.1 of the License, or (at your option) any later version.    |
|                                                                       |
| SU2 is distributed in the hope that it will be useful,                |
| but WITHOUT ANY WARRANTY; without even the implied warranty of        |
| MERCHANTABILITY or FITNESS FOR A PARTICULAR PURPOSE. See the GNU      |
| Lesser General Public License for more details.                       |
|                                                                       |
| You should have received a copy of the GNU Lesser General Public      |
| License along with SU2. If not, see <http://www.gnu.org/licenses/>.   |
-------------------------------------------------------------------------

Parsing config file for zone 0

----------------- Physical Case Definition ( Zone 0 ) -------------------
Compressible RANS equations.
Turbulence model: Spalart-Allmaras-noft2
Hybrid RANS/LES: No Hybrid RANS/LES
Mach number: 0.734.
Angle of attack (AoA): 2.31 deg, and angle of sideslip (AoS): 0 deg.
Reynolds number: 6.5e+06. Reference length 1.
Fixed CL mode, target value: 0.824.
Reading and writing binary SU2 native restart files.
Read flow solution from: solution_flow.dat.
Dimensional simulation.
The reference area is 1 m^2.
The semi-span will be computed using the max y(3D) value.
The reference length is 1 m.
Reference origin for moment evaluation is (0.25, 0, 0).
Surface(s) where the force coefficients are evaluated: AIRFOIL.

Surface(s) plotted in the output file: AIRFOIL.
Surface(s) affected by the design variables: AIRFOIL.
Input mesh file name: mesh_RAE2822_turb_deform.su2

--------------- Space Numerical Integration ( Zone 0 ) ------------------
Jameson-Schmidt-Turkel scheme (2nd order in space) for the flow inviscid terms.
JST viscous coefficients (2nd & 4th): 0.5, 0.02.
The method includes a grid stretching correction (p = 0.3).
Scalar upwind solver for the turbulence model.
First order integration in space.
Average of gradients with correction (viscous flow terms).
Average of gradients with correction (viscous turbulence terms).
Gradient for viscous and source terms: inverse-distance weighted Least-Squares.

--------------- Time Numerical Integration  ( Zone 0 ) ------------------
Local time stepping (steady state simulation).
Euler implicit method for the flow equations.
FGMRES is used for solving the linear system.
Using a ILU(0) preconditioning.
Convergence criteria of the linear solver: 1e-06.
Max number of linear iterations: 10.
No CFL adaptation.
Courant-Friedrichs-Lewy number:       10
Euler implicit time integration for the turbulence model.

------------------ Convergence Criteria  ( Zone 0 ) ---------------------
Maximum number of solver subiterations: 5500.
Begin convergence monitoring at iteration 10.
Residual minimum value: 1e-12.
Cauchy series min. value: 1e-06.
Number of Cauchy elements: 100.
Begin windowed time average at iteration 0.

-------------------- Output Information ( Zone 0 ) ----------------------
File writing frequency: 
+------------------------------------+
|                     File| Frequency|
+------------------------------------+
|                  RESTART|     10000|
|                 PARAVIEW|     10000|
|         SURFACE_PARAVIEW|     10000|
|              SURFACE_CSV|     10000|
+------------------------------------+
Writing the convergence history file every 1 inner iterations.
Writing the screen convergence history every 1 inner iterations.
The tabular file format is CSV (.csv).
Convergence history file name: history_direct.
Forces breakdown file name: forces_breakdown.dat.
Surface file name: surface_flow.
Volume file name: flow.
Restart file name: restart_flow.dat.

------------- Config File Boundary Information ( Zone 0 ) ---------------
+-----------------------------------------------------------------------+
|                        Marker Type|                        Marker Name|
+-----------------------------------------------------------------------+
|                          Far-field|                           FARFIELD|
+-----------------------------------------------------------------------+
|                     Heat flux wall|                            AIRFOIL|
+-----------------------------------------------------------------------+

-------------------- Output Preprocessing ( Zone 0 ) --------------------

WARNING: SURFACE_PRESSURE_DROP can only be computed for at least 2 surfaces (outlet, inlet, ...)

Screen output fields: INNER_ITER, RMS_DENSITY, RMS_NU_TILDE, LIFT, DRAG
History output group(s): ITER, RMS_RES, AERO_COEFF
Convergence field(s): RMS_DENSITY
Warning: No (valid) fields chosen for time convergence monitoring. Time convergence monitoring inactive.
Volume output fields: COORDINATES, SOLUTION, PRIMITIVE

------------------- Geometry Preprocessing ( Zone 0 ) -------------------
Two dimensional problem.
13937 grid points before partitioning.
22842 volume elements before partitioning.
2 surface markers.
192 boundary elements in index 0 (Marker = AIRFOIL).
40 boundary elements in index 1 (Marker = FARFIELD).
Executing the partitioning functions.
Building the graph adjacency structure.
Calling ParMETIS... graph partitioning complete (831 edge cuts).
Distributing ParMETIS coloring.
Rebalancing vertices.
Rebalancing volume element connectivity.
Rebalancing markers and surface elements.
14875 vertices including ghost points. 
23674 interior elements including halo cells. 
18780 triangles.
4894 quadrilaterals.
Establishing MPI communication patterns.
Setting point connectivity.
Renumbering points (Reverse Cuthill McKee Ordering).
Recomputing point connectivity.
Setting element connectivity.
Checking the numerical grid orientation.
All volume elements are correctly orientend.
All surface elements are correctly orientend.
Identifying edges and vertices.
Setting the control volume structure.
Area of the computational grid: 32209.9.
Searching for the closest normal neighbors to the surfaces.
Storing a mapping from global to local point index.
Compute the surface curvature.
Max K: 157.241. Mean K: 7.25191. Standard deviation K: 21.4206.
Checking for periodicity.
Computing mesh quality statistics for the dual control volumes.
+--------------------------------------------------------------+
|           Mesh Quality Metric|        Minimum|        Maximum|
+--------------------------------------------------------------+
|    Orthogonality Angle (deg.)|        75.2881|        89.9989|
|     CV Face Area Aspect Ratio|        1.00212|        3358.32|
|           CV Sub-Volume Ratio|        1.00053|        1211.16|
+--------------------------------------------------------------+
Finding max control volume width.
Communicating number of neighbors.
Wetted area = 2.02369 m.
Area projection in the x-plane = 0.1238 m, y-plane = 0.995873 m.
Max. coordinate in the x-direction = 1 m, y-direction = 0.0631763 m.
Min. coordinate in the x-direction = 0 m, y-direction = -0.0595473 m.
Computing wall distances.

-------------------- Solver Preprocessing ( Zone 0 ) --------------------
WARNING: AoA in the solution file (2.77206 deg.) +
         AoA offset in mesh file (0 deg.) = 2.77206 deg.
WARNING: SU2 will use the dCD/dCL provided in the direct solution file: 0.0297799.
WARNING: SU2 will use the dCMz/dCL provided in the direct solution file: -0.000795711.
Viscous flow: Computing pressure using the ideal gas law
based on the free-stream temperature and a density computed
from the Reynolds number.
Force coefficients computed using free-stream values.

-- Models:
+------------------------------------------------------------------------------+
|          Viscosity Model|        Conductivity Model|              Fluid Model|
+------------------------------------------------------------------------------+
|               SUTHERLAND|          CONSTANT_PRANDTL|             STANDARD_AIR|
+------------------------------------------------------------------------------+
-- Fluid properties:
+------------------------------------------------------------------------------+
|                  Name|    Dim. value|    Ref. value|      Unit|Non-dim. value|
+------------------------------------------------------------------------------+
|        Ref. Viscosity|     1.716e-05|             1|   N.s/m^2|     1.716e-05|
|      Sutherland Temp.|        273.15|             1|         K|        273.15|
|     Sutherland Const.|         110.4|             1|         K|         110.4|
+------------------------------------------------------------------------------+
|        Prandtl (Lam.)|             -|             -|         -|          0.71|
|       Prandtl (Turb.)|             -|             -|         -|           0.9|
+------------------------------------------------------------------------------+
|          Gas Constant|       287.058|             1|  N.m/kg.K|       287.058|
|      Spec. Heat Ratio|             -|             -|         -|           1.4|
+------------------------------------------------------------------------------+
-- Initial and free-stream conditions:
+------------------------------------------------------------------------------+
|                  Name|    Dim. value|    Ref. value|      Unit|Non-dim. value|
+------------------------------------------------------------------------------+
|       Static Pressure|         38515|             1|        Pa|         38515|
|               Density|      0.465631|             1|    kg/m^3|      0.465631|
|           Temperature|        288.15|             1|         K|        288.15|
|          Total Energy|        237984|             1|   m^2/s^2|        237984|
|            Velocity-X|       249.486|             1|       m/s|       249.486|
|            Velocity-Y|       12.0799|             1|       m/s|       12.0799|
|    Velocity Magnitude|       249.778|             1|       m/s|       249.778|
+------------------------------------------------------------------------------+
|             Viscosity|    1.7893e-05|             1|   N.s/m^2|    1.7893e-05|
|          Conductivity|             -|             1|   W/m^2.K|             -|
|     Turb. Kin. Energy|       233.959|             1|   m^2/s^2|       233.959|
|     Spec. Dissipation|        608834|             1|       1/s|        608834|
+------------------------------------------------------------------------------+
|           Mach Number|             -|             -|         -|         0.734|
|       Reynolds Number|             -|             -|         -|       6.5e+06|
+------------------------------------------------------------------------------+
Initialize Jacobian structure (Navier-Stokes). MG level: 0.
Initialize Jacobian structure (SA model).

------------------- Numerics Preprocessing ( Zone 0 ) -------------------

----------------- Integration Preprocessing ( Zone 0 ) ------------------

------------------- Iteration Preprocessing ( Zone 0 ) ------------------
Euler/Navier-Stokes/RANS fluid iteration.

------------------------------ Begin Solver -----------------------------

Simulation Run using the Single-zone Driver
WARNING: SU2 was not compiled for an AVX-capable architecture. Performance could be better,
         see https://su2code.github.io/docs_v7/Build-SU2-Linux-MacOS/#compiler-optimizations
+----------------------------------------------------------------+
|  Inner_Iter|    rms[Rho]|     rms[nu]|          CL|          CD|
+----------------------------------------------------------------+
|           0|   -4.233479|   -5.546847|    0.824048|    0.012180|
|           1|   -4.278462|   -5.631293|    0.824041|    0.012099|
|           2|   -4.322654|   -5.740994|    0.824009|    0.012073|
|           3|   -4.346809|   -5.874173|    0.823966|    0.012079|
|           4|   -4.352362|   -6.020244|    0.823924|    0.012094|
|           5|   -4.347706|   -6.151354|    0.823885|    0.012107|
|           6|   -4.340241|   -6.221601|    0.823851|    0.012112|
|           7|   -4.333742|   -6.220619|    0.823821|    0.012110|
|           8|   -4.329002|   -6.190545|    0.823794|    0.012102|
|           9|   -4.325368|   -6.161678|    0.823774|    0.012091|
|          10|   -4.321863|   -6.140646|    0.823760|    0.012079|
|          11|   -4.317635|   -6.123625|    0.823753|    0.012067|
|          12|   -4.312010|   -6.107531|    0.823753|    0.012057|
|          13|   -4.304486|   -6.090564|    0.823758|    0.012049|
|          14|   -4.294840|   -6.072634|    0.823768|    0.012044|
|          15|   -4.283277|   -6.054212|    0.823781|    0.012043|
|          16|   -4.270456|   -6.035325|    0.823796|    0.012047|
|          17|   -4.257322|   -6.015300|    0.823811|    0.012054|
|          18|   -4.244825|   -5.993236|    0.823828|    0.012065|
|          19|   -4.233663|   -5.968676|    0.823844|    0.012081|
|          20|   -4.224141|   -5.942027|    0.823860|    0.012100|
|          21|   -4.216166|   -5.914502|    0.823874|    0.012122|
|          22|   -4.209354|   -5.887720|    0.823888|    0.012146|
|          23|   -4.203193|   -5.863185|    0.823899|    0.012172|
|          24|   -4.197227|   -5.842063|    0.823907|    0.012199|
|          25|   -4.191188|   -5.825241|    0.823910|    0.012225|
|          26|   -4.185035|   -5.813189|    0.823908|    0.012250|
|          27|   -4.178918|   -5.806033|    0.823900|    0.012274|
|          28|   -4.173065|   -5.803633|    0.823884|    0.012294|
|          29|   -4.167684|   -5.805675|    0.823860|    0.012312|
|          30|   -4.162896|   -5.811669|    0.823828|    0.012326|
|          31|   -4.158711|   -5.820994|    0.823788|    0.012336|
|          32|   -4.155042|   -5.832954|    0.823740|    0.012343|
|          33|   -4.151745|   -5.846845|    0.823686|    0.012346|
|          34|   -4.148651|   -5.862024|    0.823626|    0.012347|
|          35|   -4.145612|   -5.877958|    0.823563|    0.012346|
|          36|   -4.142519|   -5.894250|    0.823498|    0.012343|
|          37|   -4.139308|   -5.910560|    0.823433|    0.012339|
|          38|   -4.135969|   -5.926484|    0.823369|    0.012335|
|          39|   -4.132548|   -5.941407|    0.823308|    0.012331|
|          40|   -4.129128|   -5.954339|    0.823250|    0.012328|
|          41|   -4.125834|   -5.963996|    0.823198|    0.012326|
|          42|   -4.122782|   -5.969034|    0.823150|    0.012326|
|          43|   -4.120091|   -5.968463|    0.823108|    0.012328|
|          44|   -4.117859|   -5.962078|    0.823071|    0.012331|
|          45|   -4.116139|   -5.950607|    0.823039|    0.012336|
|          46|   -4.114949|   -5.935480|    0.823011|    0.012342|
|          47|   -4.114272|   -5.918384|    0.822986|    0.012349|
|          48|   -4.114066|   -5.900845|    0.822963|    0.012356|
|          49|   -4.114274|   -5.884007|    0.822941|    0.012364|
|          50|   -4.114831|   -5.868575|    0.822920|    0.012372|
|          51|   -4.115681|   -5.854867|    0.822898|    0.012379|
|          52|   -4.116774|   -5.842905|    0.822874|    0.012386|
|          53|   -4.118088|   -5.832552|    0.822849|    0.012392|
|          54|   -4.119609|   -5.823580|    0.822822|    0.012397|
|          55|   -4.121340|   -5.815746|    0.822791|    0.012400|
|          56|   -4.123296|   -5.808856|    0.822758|    0.012402|
|          57|   -4.125498|   -5.802783|    0.822723|    0.012403|
|          58|   -4.127971|   -5.797478|    0.822685|    0.012403|
|          59|   -4.130734|   -5.792949|    0.822646|    0.012401|
|          60|   -4.133806|   -5.789240|    0.822605|    0.012399|
|          61|   -4.137168|   -5.786397|    0.822562|    0.012396|
|          62|   -4.140829|   -5.784409|    0.822520|    0.012392|
|          63|   -4.144774|   -5.783248|    0.822478|    0.012387|
|          64|   -4.148975|   -5.782831|    0.822436|    0.012382|
|          65|   -4.153404|   -5.783033|    0.822396|    0.012378|
|          66|   -4.158034|   -5.783685|    0.822357|    0.012373|
|          67|   -4.162848|   -5.784606|    0.822319|    0.012368|
|          68|   -4.167834|   -5.785610|    0.822284|    0.012363|
|          69|   -4.172989|   -5.786535|    0.822251|    0.012358|
|          70|   -4.178313|   -5.787256|    0.822220|    0.012353|
|          71|   -4.183810|   -5.787690|    0.822191|    0.012349|
|          72|   -4.189488|   -5.787796|    0.822164|    0.012345|
|          73|   -4.195334|   -5.787571|    0.822138|    0.012341|
|          74|   -4.201328|   -5.787050|    0.822114|    0.012337|
|          75|   -4.207442|   -5.786288|    0.822091|    0.012333|
|          76|   -4.213640|   -5.785351|    0.822068|    0.012329|
|          77|   -4.219885|   -5.784302|    0.822047|    0.012325|
|          78|   -4.226144|   -5.783196|    0.822025|    0.012321|
|          79|   -4.232394|   -5.782083|    0.822004|    0.012317|
|          80|   -4.238629|   -5.781016|    0.821982|    0.012313|
|          81|   -4.244854|   -5.780035|    0.821960|    0.012309|
|          82|   -4.251095|   -5.779164|    0.821937|    0.012304|
|          83|   -4.257383|   -5.778428|    0.821914|    0.012300|
|          84|   -4.263761|   -5.777852|    0.821891|    0.012295|
|          85|   -4.270258|   -5.777448|    0.821867|    0.012290|
|          86|   -4.276895|   -5.777206|    0.821842|    0.012285|
|          87|   -4.283677|   -5.777089|    0.821818|    0.012281|
|          88|   -4.290586|   -5.777131|    0.821792|    0.012276|
|          89|   -4.297573|   -5.777321|    0.821767|    0.012271|
|          90|   -4.304572|   -5.777641|    0.821742|    0.012266|
|          91|   -4.311503|   -5.778070|    0.821716|    0.012260|
|          92|   -4.318269|   -5.778588|    0.821691|    0.012255|
|          93|   -4.324773|   -5.779173|    0.821666|    0.012250|
|          94|   -4.330918|   -5.779809|    0.821642|    0.012245|
|          95|   -4.336621|   -5.780480|    0.821618|    0.012240|
|          96|   -4.341813|   -5.781175|    0.821594|    0.012236|
|          97|   -4.346445|   -5.781890|    0.821571|    0.012231|
|          98|   -4.350491|   -5.782624|    0.821549|    0.012227|
|          99|   -4.353943|   -5.783377|    0.821527|    0.012222|
|         100|   -4.356816|   -5.784158|    0.821506|    0.012219|
|         101|   -4.359131|   -5.784974|    0.821483|    0.012394|
+-----------------------------------------------------------------------+
|Fixed CL Mode                           |Value                         |
+-----------------------------------------------------------------------+
|Current CL                              |0.821483                      |
|Target CL                               |0.824                         |
|Previous AOA                            |2.77206                       |
|Changed AoA by                          |0.0124682                     |
+-----------------------------------------------------------------------+
+----------------------------------------------------------------+
|  Inner_Iter|    rms[Rho]|     rms[nu]|          CL|          CD|
+----------------------------------------------------------------+
|         102|   -2.097559|   -5.756029|    0.821464|    0.012390|
|         103|   -2.482126|   -5.771775|    0.821445|    0.012387|
|         104|   -2.727031|   -5.777107|    0.821427|    0.012385|
|         105|   -2.806943|   -5.780472|    0.821409|    0.012382|
|         106|   -2.861472|   -5.783217|    0.821391|    0.012381|
|         107|   -2.932066|   -5.785715|    0.821374|    0.012379|
|         108|   -3.019398|   -5.788036|    0.821357|    0.012378|
|         109|   -3.110639|   -5.790222|    0.821340|    0.012377|
|         110|   -3.188830|   -5.792327|    0.821323|    0.012377|
|         111|   -3.245199|   -5.794384|    0.821305|    0.012377|
|         112|   -3.281484|   -5.796422|    0.821288|    0.012377|
|         113|   -3.301912|   -5.798496|    0.821270|    0.012378|
|         114|   -3.310682|   -5.800675|    0.821252|    0.012378|
|         115|   -3.313849|   -5.803000|    0.821234|    0.012379|
|         116|   -3.318064|   -5.805491|    0.821215|    0.012380|
|         117|   -3.327714|   -5.808145|    0.821196|    0.012382|
|         118|   -3.343766|   -5.810966|    0.821176|    0.012383|
|         119|   -3.364356|   -5.813963|    0.821156|    0.012384|
|         120|   -3.386260|   -5.817137|    0.821136|    0.012385|
|         121|   -3.406740|   -5.820476|    0.821115|    0.012387|
|         122|   -3.424871|   -5.823957|    0.821094|    0.012388|
|         123|   -3.441491|   -5.827565|    0.821074|    0.012389|
|         124|   -3.458036|   -5.831276|    0.821053|    0.012391|
|         125|   -3.475422|   -5.835050|    0.821032|    0.012392|
|         126|   -3.493645|   -5.838865|    0.821011|    0.012394|
|         127|   -3.512010|   -5.842694|    0.820991|    0.012395|
|         128|   -3.529554|   -5.846518|    0.820972|    0.012396|
|         129|   -3.545377|   -5.850328|    0.820953|    0.012398|
|         130|   -3.558832|   -5.854119|    0.820935|    0.012400|
|         131|   -3.569650|   -5.857879|    0.820918|    0.012402|
|         132|   -3.578036|   -5.861598|    0.820902|    0.012404|
|         133|   -3.584676|   -5.865309|    0.820887|    0.012406|
|         134|   -3.590591|   -5.868994|    0.820873|    0.012409|
|         135|   -3.596876|   -5.872647|    0.820861|    0.012412|
|         136|   -3.604454|   -5.876267|    0.820851|    0.012415|
|         137|   -3.613904|   -5.879854|    0.820842|    0.012419|
|         138|   -3.625398|   -5.883390|    0.820835|    0.012422|
|         139|   -3.638694|   -5.886860|    0.820830|    0.012427|
|         140|   -3.653169|   -5.890265|    0.820827|    0.012431|
|         141|   -3.667907|   -5.893604|    0.820826|    0.012436|
|         142|   -3.681864|   -5.896865|    0.820827|    0.012441|
|         143|   -3.694125|   -5.900046|    0.820830|    0.012446|
|         144|   -3.704177|   -5.903127|    0.820836|    0.012452|
|         145|   -3.712079|   -5.906106|    0.820844|    0.012458|
|         146|   -3.718424|   -5.908996|    0.820856|    0.012464|
|         147|   -3.724130|   -5.911779|    0.820870|    0.012471|
|         148|   -3.730152|   -5.914446|    0.820887|    0.012477|
|         149|   -3.737254|   -5.916984|    0.820907|    0.012484|
|         150|   -3.745882|   -5.919380|    0.820931|    0.012491|
|         151|   -3.756134|   -5.921618|    0.820959|    0.012498|
|         152|   -3.767806|   -5.923689|    0.820991|    0.012506|
|         153|   -3.780474|   -5.925587|    0.821027|    0.012513|
|         154|   -3.793606|   -5.927307|    0.821067|    0.012521|
|         155|   -3.806680|   -5.928853|    0.821111|    0.012528|
|         156|   -3.819287|   -5.930215|    0.821160|    0.012536|
|         157|   -3.831204|   -5.931393|    0.821213|    0.012544|
|         158|   -3.842413|   -5.932401|    0.821270|    0.012552|
|         159|   -3.853062|   -5.933255|    0.821331|    0.012560|
|         160|   -3.863402|   -5.933969|    0.821397|    0.012568|
|         161|   -3.873705|   -5.934565|    0.821466|    0.012576|
|         162|   -3.884208|   -5.935072|    0.821539|    0.012584|
|         163|   -3.895078|   -5.935522|    0.821615|    0.012592|
|         164|   -3.906396|   -5.935948|    0.821694|    0.012601|
|         165|   -3.918180|   -5.936382|    0.821775|    0.012609|
|         166|   -3.930400|   -5.936854|    0.821857|    0.012617|
|         167|   -3.943005|   -5.937393|    0.821941|    0.012625|
|         168|   -3.955940|   -5.938024|    0.822026|    0.012632|
|         169|   -3.969162|   -5.938769|    0.822110|    0.012640|
|         170|   -3.982639|   -5.939644|    0.822194|    0.012647|
|         171|   -3.996351|   -5.940659|    0.822276|    0.012655|
|         172|   -4.010276|   -5.941819|    0.822356|    0.012662|
|         173|   -4.024389|   -5.943122|    0.822434|    0.012668|
|         174|   -4.038645|   -5.944573|    0.822508|    0.012674|
|         175|   -4.052983|   -5.946147|    0.822578|    0.012680|
|         176|   -4.067322|   -5.947828|    0.822643|    0.012686|
|         177|   -4.081562|   -5.949606|    0.822703|    0.012691|
|         178|   -4.095590|   -5.951475|    0.822757|    0.012696|
|         179|   -4.109286|   -5.953413|    0.822806|    0.012700|
|         180|   -4.122528|   -5.955405|    0.822848|    0.012704|
|         181|   -4.135197|   -5.957483|    0.822883|    0.012707|
|         182|   -4.147182|   -5.959597|    0.822911|    0.012710|
|         183|   -4.158392|   -5.961751|    0.822932|    0.012712|
|         184|   -4.168754|   -5.963948|    0.822946|    0.012714|
|         185|   -4.178216|   -5.966201|    0.822954|    0.012715|
|         186|   -4.186753|   -5.968522|    0.822954|    0.012716|
|         187|   -4.194369|   -5.970933|    0.822947|    0.012716|
|         188|   -4.201094|   -5.973466|    0.822934|    0.012716|
|         189|   -4.206984|   -5.976155|    0.822915|    0.012715|
|         190|   -4.212118|   -5.979036|    0.822889|    0.012714|
|         191|   -4.216588|   -5.982163|    0.822858|    0.012712|
|         192|   -4.220497|   -5.985580|    0.822821|    0.012710|
|         193|   -4.223950|   -5.989316|    0.822780|    0.012708|
|         194|   -4.227051|   -5.993415|    0.822734|    0.012705|
|         195|   -4.229896|   -5.997926|    0.822684|    0.012702|
|         196|   -4.232571|   -6.002875|    0.822631|    0.012699|
|         197|   -4.235149|   -6.008295|    0.822574|    0.012695|
|         198|   -4.237689|   -6.014211|    0.822515|    0.012691|
|         199|   -4.240240|   -6.020642|    0.822453|    0.012687|
|         200|   -4.242834|   -6.027601|    0.822390|    0.012683|
|         201|   -4.245497|   -6.035092|    0.822323|    0.012794|
+-----------------------------------------------------------------------+
|Fixed CL Mode                           |Value                         |
+-----------------------------------------------------------------------+
|Current CL                              |0.822323                      |
|Target CL                               |0.824                         |
|Previous AOA                            |2.78453                       |
|Changed AoA by                          |0.00805056                    |
+-----------------------------------------------------------------------+
+----------------------------------------------------------------+
|  Inner_Iter|    rms[Rho]|     rms[nu]|          CL|          CD|
+----------------------------------------------------------------+
|         202|   -2.287455|   -6.002433|    0.822257|    0.012790|
|         203|   -2.670650|   -6.029827|    0.822191|    0.012785|
|         204|   -2.911331|   -6.044436|    0.822124|    0.012780|
|         205|   -2.988898|   -6.056941|    0.822057|    0.012775|
|         206|   -3.042643|   -6.069062|    0.821991|    0.012770|
|         207|   -3.112515|   -6.081126|    0.821925|    0.012765|
|         208|   -3.198948|   -6.093230|    0.821860|    0.012760|
|         209|   -3.289695|   -6.105307|    0.821797|    0.012755|
|         210|   -3.368900|   -6.117350|    0.821736|    0.012749|
|         211|   -3.428266|   -6.129299|    0.821676|    0.012744|
|         212|   -3.468798|   -6.141076|    0.821619|    0.012739|
|         213|   -3.493500|   -6.152656|    0.821563|    0.012734|
|         214|   -3.505566|   -6.164055|    0.821511|    0.012729|
|         215|   -3.510701|   -6.175313|    0.821461|    0.012724|
|         216|   -3.515840|   -6.186333|    0.821415|    0.012720|
|         217|   -3.525854|   -6.197051|    0.821372|    0.012715|
|         218|   -3.542095|   -6.207402|    0.821331|    0.012711|
|         219|   -3.562946|   -6.217423|    0.821295|    0.012707|
|         220|   -3.585355|   -6.227107|    0.821262|    0.012703|
|         221|   -3.606694|   -6.236455|    0.821233|    0.012699|
|         222|   -3.626095|   -6.245459|    0.821207|    0.012695|
|         223|   -3.644384|   -6.254066|    0.821186|    0.012692|
|         224|   -3.662919|   -6.262295|    0.821168|    0.012689|
|         225|   -3.682455|   -6.270179|    0.821154|    0.012686|
|         226|   -3.702751|   -6.277624|    0.821144|    0.012683|
|         227|   -3.722821|   -6.284679|    0.821138|    0.012680|
|         228|   -3.741419|   -6.291401|    0.821136|    0.012678|
|         229|   -3.757465|   -6.297821|    0.821138|    0.012676|
|         230|   -3.770297|   -6.303997|    0.821143|    0.012675|
|         231|   -3.779800|   -6.309986|    0.821152|    0.012673|
|         232|   -3.786453|   -6.315865|    0.821165|    0.012672|
|         233|   -3.791242|   -6.321661|    0.821182|    0.012671|
|         234|   -3.795418|   -6.327399|    0.821202|    0.012670|
|         235|   -3.800200|   -6.333119|    0.821225|    0.012670|
|         236|   -3.806514|   -6.338838|    0.821252|    0.012670|
|         237|   -3.814864|   -6.344536|    0.821282|    0.012670|
|         238|   -3.825296|   -6.350145|    0.821315|    0.012670|
|         239|   -3.837419|   -6.355674|    0.821351|    0.012670|
|         240|   -3.850467|   -6.361107|    0.821389|    0.012671|
|         241|   -3.863408|   -6.366422|    0.821430|    0.012671|
|         242|   -3.875153|   -6.371602|    0.821473|    0.012672|
|         243|   -3.884825|   -6.376656|    0.821519|    0.012673|
|         244|   -3.892033|   -6.381585|    0.821567|    0.012675|
|         245|   -3.896993|   -6.386385|    0.821616|    0.012676|
|         246|   -3.900437|   -6.391060|    0.821668|    0.012677|
|         247|   -3.903360|   -6.395606|    0.821721|    0.012679|
|         248|   -3.906725|   -6.400035|    0.821775|    0.012681|
|         249|   -3.911258|   -6.404361|    0.821832|    0.012682|
|         250|   -3.917348|   -6.408575|    0.821890|    0.012684|
|         251|   -3.925050|   -6.412672|    0.821949|    0.012686|
|         252|   -3.934144|   -6.416675|    0.822010|    0.012688|
|         253|   -3.944229|   -6.420575|    0.822072|    0.012690|
|         254|   -3.954831|   -6.424381|    0.822135|    0.012692|
|         255|   -3.965511|   -6.428068|    0.822200|    0.012694|
|         256|   -3.975953|   -6.431619|    0.822265|    0.012697|
|         257|   -3.986009|   -6.435040|    0.822332|    0.012699|
|         258|   -3.995706|   -6.438305|    0.822400|    0.012701|
|         259|   -4.005201|   -6.441379|    0.822470|    0.012703|
|         260|   -4.014727|   -6.444231|    0.822540|    0.012706|
|         261|   -4.024519|   -6.446858|    0.822610|    0.012708|
|         262|   -4.034776|   -6.449238|    0.822682|    0.012710|
|         263|   -4.045631|   -6.451373|    0.822754|    0.012712|
|         264|   -4.057150|   -6.453283|    0.822827|    0.012715|
|         265|   -4.069339|   -6.454993|    0.822900|    0.012717|
|         266|   -4.082167|   -6.456537|    0.822973|    0.012719|
|         267|   -4.095586|   -6.457946|    0.823045|    0.012722|
|         268|   -4.109546|   -6.459279|    0.823117|    0.012724|
|         269|   -4.124004|   -6.460605|    0.823189|    0.012726|
|         270|   -4.138927|   -6.462001|    0.823259|    0.012728|
|         271|   -4.154287|   -6.463546|    0.823328|    0.012731|
|         272|   -4.170049|   -6.465309|    0.823396|    0.012733|
|         273|   -4.186167|   -6.467451|    0.823462|    0.012735|
|         274|   -4.202570|   -6.469892|    0.823525|    0.012737|
|         275|   -4.219162|   -6.472677|    0.823586|    0.012739|
|         276|   -4.235813|   -6.475906|    0.823644|    0.012741|
|         277|   -4.252364|   -6.479554|    0.823699|    0.012742|
|         278|   -4.268628|   -6.483598|    0.823750|    0.012744|
|         279|   -4.284399|   -6.487987|    0.823798|    0.012746|
|         280|   -4.299458|   -6.492638|    0.823842|    0.012747|
|         281|   -4.313586|   -6.497441|    0.823882|    0.012749|
|         282|   -4.326576|   -6.502273|    0.823918|    0.012750|
|         283|   -4.338246|   -6.506985|    0.823950|    0.012752|
|         284|   -4.348450|   -6.511441|    0.823977|    0.012753|
|         285|   -4.357094|   -6.515395|    0.824000|    0.012754|
|         286|   -4.364138|   -6.518676|    0.824018|    0.012755|
|         287|   -4.369603|   -6.521135|    0.824032|    0.012756|
|         288|   -4.373567|   -6.522663|    0.824042|    0.012757|
|         289|   -4.376153|   -6.523212|    0.824047|    0.012758|
|         290|   -4.377525|   -6.522784|    0.824048|    0.012759|
|         291|   -4.377870|   -6.521446|    0.824044|    0.012760|
|         292|   -4.377382|   -6.519323|    0.824037|    0.012760|
|         293|   -4.376258|   -6.516586|    0.824026|    0.012761|
|         294|   -4.374680|   -6.513436|    0.824012|    0.012761|
|         295|   -4.372816|   -6.510090|    0.823994|    0.012761|
|         296|   -4.370811|   -6.506770|    0.823972|    0.012762|
|         297|   -4.368792|   -6.503685|    0.823948|    0.012762|
|         298|   -4.366861|   -6.501027|    0.823921|    0.012761|
|         299|   -4.365101|   -6.498960|    0.823892|    0.012761|
|         300|   -4.363579|   -6.497620|    0.823860|    0.012761|
|         301|   -4.362345|   -6.497108|    0.823826|    0.012770|
+-----------------------------------------------------------------------+
|Fixed CL Mode                           |Value                         |
+-----------------------------------------------------------------------+
|Current CL                              |0.823826                      |
|Target CL                               |0.824                         |
|Previous AOA                            |2.79258                       |
|Changed AoA by                          |0.00069947                    |
+-----------------------------------------------------------------------+
+----------------------------------------------------------------+
|  Inner_Iter|    rms[Rho]|     rms[nu]|          CL|          CD|
+----------------------------------------------------------------+
|         302|   -3.346204|   -6.494230|    0.823791|    0.012769|
|         303|   -3.711022|   -6.496961|    0.823754|    0.012768|
|         304|   -3.905978|   -6.499646|    0.823716|    0.012767|
|         305|   -3.959364|   -6.503027|    0.823676|    0.012766|
|         306|   -3.999543|   -6.507135|    0.823637|    0.012764|
|         307|   -4.051719|   -6.511870|    0.823596|    0.012762|
|         308|   -4.112336|   -6.517080|    0.823556|    0.012760|
|         309|   -4.171662|   -6.522566|    0.823516|    0.012758|
|         310|   -4.221853|   -6.528095|    0.823476|    0.012756|
|         311|   -4.261159|   -6.533396|    0.823437|    0.012753|
|         312|   -4.291243|   -6.538184|    0.823399|    0.012751|
|         313|   -4.313365|   -6.542168|    0.823362|    0.012748|
|         314|   -4.328299|   -6.545073|    0.823326|    0.012745|
|         315|   -4.337785|   -6.546699|    0.823292|    0.012742|
|         316|   -4.344552|   -6.546901|    0.823259|    0.012739|
|         317|   -4.351082|   -6.545616|    0.823229|    0.012736|
|         318|   -4.358700|   -6.542867|    0.823201|    0.012733|
|         319|   -4.367574|   -6.538770|    0.823175|    0.012729|
|         320|   -4.377310|   -6.533510|    0.823151|    0.012726|
|         321|   -4.387558|   -6.527327|    0.823130|    0.012723|
|         322|   -4.398266|   -6.520486|    0.823112|    0.012720|
|         323|   -4.409554|   -6.513261|    0.823096|    0.012716|
|         324|   -4.421418|   -6.505915|    0.823083|    0.012713|
|         325|   -4.433560|   -6.498688|    0.823073|    0.012710|
|         326|   -4.445430|   -6.491793|    0.823066|    0.012707|
|         327|   -4.456424|   -6.485407|    0.823061|    0.012704|
|         328|   -4.466096|   -6.479674|    0.823059|    0.012701|
|         329|   -4.474274|   -6.474706|    0.823060|    0.012698|
|         330|   -4.481059|   -6.470582|    0.823063|    0.012695|
|         331|   -4.486745|   -6.467355|    0.823068|    0.012693|
|         332|   -4.491722|   -6.465052|    0.823076|    0.012690|
|         333|   -4.496380|   -6.463680|    0.823086|    0.012688|
|         334|   -4.501039|   -6.463221|    0.823098|    0.012685|
|         335|   -4.505890|   -6.463643|    0.823112|    0.012683|
|         336|   -4.510970|   -6.464896|    0.823128|    0.012681|
|         337|   -4.516163|   -6.466916|    0.823145|    0.012679|
|         338|   -4.521235|   -6.469631|    0.823163|    0.012677|
|         339|   -4.525882|   -6.472955|    0.823183|    0.012676|
|         340|   -4.529787|   -6.476796|    0.823204|    0.012674|
|         341|   -4.532679|   -6.481053|    0.823225|    0.012673|
|         342|   -4.534379|   -6.485627|    0.823247|    0.012671|
|         343|   -4.534832|   -6.490421|    0.823269|    0.012670|
|         344|   -4.534113|   -6.495336|    0.823292|    0.012668|
|         345|   -4.532403|   -6.500288|    0.823315|    0.012667|
|         346|   -4.529940|   -6.505197|    0.823337|    0.012666|
|         347|   -4.526973|   -6.510000|    0.823360|    0.012664|
|         348|   -4.523719|   -6.514648|    0.823382|    0.012663|
|         349|   -4.520335|   -6.519105|    0.823404|    0.012662|
|         350|   -4.516917|   -6.523353|    0.823426|    0.012660|
|         351|   -4.513508|   -6.527385|    0.823446|    0.012659|
|         352|   -4.510120|   -6.531211|    0.823467|    0.012657|
|         353|   -4.506751|   -6.534846|    0.823487|    0.012656|
|         354|   -4.503405|   -6.538314|    0.823506|    0.012655|
|         355|   -4.500104|   -6.541641|    0.823524|    0.012653|
|         356|   -4.496887|   -6.544852|    0.823542|    0.012652|
|         357|   -4.493809|   -6.547970|    0.823559|    0.012650|
|         358|   -4.490936|   -6.551010|    0.823575|    0.012648|
|         359|   -4.488336|   -6.553981|    0.823591|    0.012647|
|         360|   -4.486070|   -6.556884|    0.823607|    0.012645|
|         361|   -4.484194|   -6.559709|    0.823621|    0.012644|
|         362|   -4.482749|   -6.562441|    0.823636|    0.012642|
|         363|   -4.481768|   -6.565060|    0.823650|    0.012640|
|         364|   -4.481273|   -6.567541|    0.823664|    0.012639|
|         365|   -4.481280|   -6.569858|    0.823677|    0.012637|
|         366|   -4.481800|   -6.571990|    0.823691|    0.012635|
|         367|   -4.482842|   -6.573921|    0.823704|    0.012634|
|         368|   -4.484410|   -6.575641|    0.823717|    0.012632|
|         369|   -4.486509|   -6.577151|    0.823730|    0.012630|
|         370|   -4.489139|   -6.578464|    0.823743|    0.012629|
|         371|   -4.492297|   -6.579601|    0.823756|    0.012627|
|         372|   -4.495977|   -6.580593|    0.823769|    0.012626|
|         373|   -4.500168|   -6.581481|    0.823782|    0.012625|
|         374|   -4.504854|   -6.582310|    0.823795|    0.012623|
|         375|   -4.510012|   -6.583126|    0.823808|    0.012622|
|         376|   -4.515614|   -6.583980|    0.823822|    0.012621|
|         377|   -4.521626|   -6.584920|    0.823835|    0.012620|
|         378|   -4.528006|   -6.585990|    0.823848|    0.012619|
|         379|   -4.534709|   -6.587220|    0.823861|    0.012618|
|         380|   -4.541679|   -6.588641|    0.823874|    0.012618|
|         381|   -4.548858|   -6.590268|    0.823887|    0.012617|
|         382|   -4.556179|   -6.592104|    0.823899|    0.012617|
|         383|   -4.563570|   -6.594138|    0.823911|    0.012616|
|         384|   -4.570957|   -6.596346|    0.823923|    0.012616|
|         385|   -4.578257|   -6.598688|    0.823935|    0.012616|
|         386|   -4.585389|   -6.601118|    0.823946|    0.012616|
|         387|   -4.592269|   -6.603580|    0.823956|    0.012616|
|         388|   -4.598816|   -6.606012|    0.823966|    0.012616|
|         389|   -4.604951|   -6.608350|    0.823976|    0.012616|
|         390|   -4.610603|   -6.610533|    0.823984|    0.012617|
|         391|   -4.615710|   -6.612501|    0.823992|    0.012617|
|         392|   -4.620221|   -6.614206|    0.823999|    0.012617|
|         393|   -4.624099|   -6.615611|    0.824006|    0.012618|
|         394|   -4.627323|   -6.616692|    0.824011|    0.012618|
|         395|   -4.629887|   -6.617442|    0.824016|    0.012619|
|         396|   -4.631803|   -6.617869|    0.824020|    0.012619|
|         397|   -4.633097|   -6.617996|    0.824023|    0.012620|
|         398|   -4.633810|   -6.617859|    0.824025|    0.012620|
|         399|   -4.633995|   -6.617506|    0.824026|    0.012621|
|         400|   -4.633716|   -6.616989|    0.824027|    0.012621|
|         401|   -4.633041|   -6.616366|    0.824027|    0.012620|
+-----------------------------------------------------------------------+
|Fixed CL Mode                           |Value                         |
+-----------------------------------------------------------------------+
|Current CL                              |0.824027                      |
|Target CL                               |0.824                         |
|Previous AOA                            |2.79328                       |
|Changed AoA by                          |-0.00013534                   |
+-----------------------------------------------------------------------+
+----------------------------------------------------------------+
|  Inner_Iter|    rms[Rho]|     rms[nu]|          CL|          CD|
+----------------------------------------------------------------+
|         402|   -4.046194|   -6.615598|    0.824026|    0.012620|
|         403|   -4.375930|   -6.615017|    0.824025|    0.012621|
|         404|   -4.535460|   -6.614425|    0.824023|    0.012621|
|         405|   -4.576565|   -6.613913|    0.824020|    0.012622|
|         406|   -4.593270|   -6.613522|    0.824017|    0.012622|
|         407|   -4.604851|   -6.613277|    0.824013|    0.012622|
|         408|   -4.612217|   -6.613189|    0.824010|    0.012623|
|         409|   -4.614539|   -6.613261|    0.824006|    0.012623|
|         410|   -4.612970|   -6.613486|    0.824001|    0.012623|
|         411|   -4.609760|   -6.613852|    0.823997|    0.012623|
|         412|   -4.606554|   -6.614338|    0.823992|    0.012623|
|         413|   -4.604061|   -6.614919|    0.823988|    0.012623|
|         414|   -4.602514|   -6.615571|    0.823984|    0.012623|
|         415|   -4.602024|   -6.616269|    0.823979|    0.012623|
|         416|   -4.602641|   -6.616989|    0.823976|    0.012623|
|         417|   -4.604289|   -6.617710|    0.823972|    0.012623|
|         418|   -4.606736|   -6.618419|    0.823968|    0.012623|
|         419|   -4.609671|   -6.619106|    0.823965|    0.012623|
|         420|   -4.612815|   -6.619770|    0.823963|    0.012623|
|         421|   -4.616008|   -6.620416|    0.823961|    0.012622|
|         422|   -4.619233|   -6.621056|    0.823959|    0.012622|
|         423|   -4.622562|   -6.621707|    0.823958|    0.012622|
|         424|   -4.626096|   -6.622393|    0.823957|    0.012622|
|         425|   -4.629911|   -6.623139|    0.823957|    0.012621|
|         426|   -4.634044|   -6.623974|    0.823957|    0.012621|
|         427|   -4.638486|   -6.624936|    0.823958|    0.012621|
|         428|   -4.643198|   -6.626054|    0.823959|    0.012621|
|         429|   -4.648120|   -6.627332|    0.823961|    0.012620|
|         430|   -4.653186|   -6.628782|    0.823963|    0.012620|
|         431|   -4.658336|   -6.630424|    0.823965|    0.012620|
|         432|   -4.663523|   -6.632276|    0.823968|    0.012620|
|         433|   -4.668716|   -6.634347|    0.823971|    0.012620|
|         434|   -4.673909|   -6.636642|    0.823975|    0.012619|
|         435|   -4.679116|   -6.639168|    0.823979|    0.012619|
|         436|   -4.684361|   -6.641954|    0.823983|    0.012619|
|         437|   -4.689675|   -6.644949|    0.823987|    0.012619|
|         438|   -4.695071|   -6.648164|    0.823991|    0.012619|
|         439|   -4.700565|   -6.651581|    0.823996|    0.012619|
|         440|   -4.706166|   -6.655173|    0.824001|    0.012619|
|         441|   -4.711870|   -6.658908|    0.824005|    0.012618|
|         442|   -4.717668|   -6.662751|    0.824010|    0.012618|
|         443|   -4.723551|   -6.666671|    0.824015|    0.012618|
|         444|   -4.729509|   -6.670637|    0.824020|    0.012618|
|         445|   -4.735536|   -6.674620|    0.824025|    0.012618|
|         446|   -4.741630|   -6.678596|    0.824030|    0.012618|
|         447|   -4.747789|   -6.682545|    0.824034|    0.012618|
|         448|   -4.754009|   -6.686450|    0.824039|    0.012618|
|         449|   -4.760282|   -6.690300|    0.824044|    0.012617|
|         450|   -4.766594|   -6.694087|    0.824048|    0.012617|
|         451|   -4.772921|   -6.697812|    0.824053|    0.012617|
|         452|   -4.779231|   -6.701478|    0.824057|    0.012617|
|         453|   -4.785484|   -6.705093|    0.824062|    0.012617|
|         454|   -4.791633|   -6.708669|    0.824066|    0.012616|
|         455|   -4.797630|   -6.712221|    0.824070|    0.012616|
|         456|   -4.803421|   -6.715767|    0.824074|    0.012616|
|         457|   -4.808955|   -6.719321|    0.824078|    0.012615|
|         458|   -4.814180|   -6.722903|    0.824083|    0.012615|
|         459|   -4.819046|   -6.726526|    0.824087|    0.012615|
|         460|   -4.823509|   -6.730206|    0.824091|    0.012614|
|         461|   -4.827526|   -6.733954|    0.824095|    0.012614|
|         462|   -4.831064|   -6.737781|    0.824099|    0.012613|
|         463|   -4.834096|   -6.741697|    0.824103|    0.012613|
|         464|   -4.836605|   -6.745706|    0.824107|    0.012612|
|         465|   -4.838585|   -6.749813|    0.824112|    0.012612|
|         466|   -4.840041|   -6.754019|    0.824116|    0.012611|
|         467|   -4.840993|   -6.758322|    0.824120|    0.012610|
|         468|   -4.841470|   -6.762721|    0.824125|    0.012610|
|         469|   -4.841516|   -6.767211|    0.824130|    0.012609|
|         470|   -4.841181|   -6.771785|    0.824135|    0.012608|
|         471|   -4.840526|   -6.776437|    0.824140|    0.012608|
|         472|   -4.839616|   -6.781158|    0.824145|    0.012607|
|         473|   -4.838518|   -6.785939|    0.824150|    0.012606|
|         474|   -4.837304|   -6.790769|    0.824155|    0.012605|
|         475|   -4.836043|   -6.795637|    0.824161|    0.012605|
|         476|   -4.834804|   -6.800532|    0.824166|    0.012604|
|         477|   -4.833651|   -6.805441|    0.824172|    0.012603|
|         478|   -4.832647|   -6.810353|    0.824178|    0.012602|
|         479|   -4.831847|   -6.815257|    0.824184|    0.012601|
|         480|   -4.831303|   -6.820141|    0.824191|    0.012600|
|         481|   -4.831060|   -6.824996|    0.824197|    0.012599|
|         482|   -4.831158|   -6.829811|    0.824203|    0.012598|
|         483|   -4.831631|   -6.834580|    0.824210|    0.012597|
|         484|   -4.832508|   -6.839294|    0.824216|    0.012597|
|         485|   -4.833810|   -6.843949|    0.824223|    0.012596|
|         486|   -4.835556|   -6.848542|    0.824229|    0.012595|
|         487|   -4.837759|   -6.853069|    0.824236|    0.012594|
|         488|   -4.840425|   -6.857532|    0.824243|    0.012593|
|         489|   -4.843558|   -6.861931|    0.824249|    0.012592|
|         490|   -4.847156|   -6.866270|    0.824256|    0.012591|
|         491|   -4.851213|   -6.870554|    0.824262|    0.012590|
|         492|   -4.855720|   -6.874789|    0.824269|    0.012589|
|         493|   -4.860663|   -6.878983|    0.824275|    0.012588|
|         494|   -4.866025|   -6.883145|    0.824282|    0.012587|
|         495|   -4.871783|   -6.887283|    0.824288|    0.012586|
|         496|   -4.877914|   -6.891409|    0.824294|    0.012585|
|         497|   -4.884388|   -6.895531|    0.824300|    0.012584|
|         498|   -4.891174|   -6.899660|    0.824307|    0.012583|
|         499|   -4.898236|   -6.903806|    0.824313|    0.012582|
|         500|   -4.905537|   -6.907980|    0.824318|    0.012581|
|         501|   -4.913037|   -6.912189|    0.824325|    0.012557|
+-----------------------------------------------------------------------+
|Fixed CL Mode                           |Value                         |
+-----------------------------------------------------------------------+
|Current CL                              |0.824325                      |
|Target CL                               |0.824                         |
|Previous AOA                            |2.79314                       |
|Changed AoA by                          |-0.00159195                   |
+-----------------------------------------------------------------------+
+----------------------------------------------------------------+
|  Inner_Iter|    rms[Rho]|     rms[nu]|          CL|          CD|
+----------------------------------------------------------------+
|         502|   -2.991327|   -6.837137|    0.824330|    0.012556|
|         503|   -3.375231|   -6.877751|    0.824336|    0.012555|
|         504|   -3.619069|   -6.893474|    0.824341|    0.012554|
|         505|   -3.699137|   -6.904027|    0.824347|    0.012553|
|         506|   -3.754085|   -6.912851|    0.824352|    0.012552|
|         507|   -3.824877|   -6.920776|    0.824357|    0.012551|
|         508|   -3.912132|   -6.928049|    0.824363|    0.012551|
|         509|   -4.003025|   -6.934797|    0.824368|    0.012550|
|         510|   -4.080678|   -6.941082|    0.824373|    0.012549|
|         511|   -4.136486|   -6.946907|    0.824378|    0.012548|
|         512|   -4.172315|   -6.952286|    0.824383|    0.012548|
|         513|   -4.192448|   -6.957334|    0.824388|    0.012547|
|         514|   -4.201081|   -6.962215|    0.824392|    0.012547|
|         515|   -4.204199|   -6.967053|    0.824397|    0.012546|
|         516|   -4.208348|   -6.971891|    0.824402|    0.012546|
|         517|   -4.217831|   -6.976712|    0.824407|    0.012545|
|         518|   -4.233573|   -6.981508|    0.824411|    0.012545|
|         519|   -4.253704|   -6.986297|    0.824416|    0.012545|
|         520|   -4.275033|   -6.991124|    0.824421|    0.012544|
|         521|   -4.294871|   -6.996028|    0.824425|    0.012544|
|         522|   -4.312332|   -7.001027|    0.824430|    0.012544|
|         523|   -4.328259|   -7.006109|    0.824434|    0.012544|
|         524|   -4.344076|   -7.011236|    0.824438|    0.012544|
|         525|   -4.360693|   -7.016368|    0.824443|    0.012544|
|         526|   -4.378134|   -7.021475|    0.824447|    0.012544|
|         527|   -4.395761|   -7.026527|    0.824452|    0.012544|
|         528|   -4.412676|   -7.031516|    0.824456|    0.012544|
|         529|   -4.428037|   -7.036432|    0.824460|    0.012545|
|         530|   -4.441218|   -7.041273|    0.824464|    0.012545|
|         531|   -4.451930|   -7.046040|    0.824468|    0.012545|
|         532|   -4.460311|   -7.050822|    0.824472|    0.012546|
|         533|   -4.466954|   -7.055859|    0.824475|    0.012546|
|         534|   -4.472782|   -7.060614|    0.824479|    0.012547|
|         535|   -4.478810|   -7.065243|    0.824482|    0.012547|
|         536|   -4.485908|   -7.069829|    0.824486|    0.012548|
|         537|   -4.494630|   -7.074405|    0.824489|    0.012548|
|         538|   -4.505150|   -7.078967|    0.824491|    0.012549|
|         539|   -4.517252|   -7.083503|    0.824494|    0.012550|
|         540|   -4.530371|   -7.087986|    0.824496|    0.012550|
|         541|   -4.543677|   -7.092394|    0.824498|    0.012551|
|         542|   -4.556240|   -7.096703|    0.824499|    0.012552|
|         543|   -4.567263|   -7.100908|    0.824501|    0.012553|
|         544|   -4.576316|   -7.105002|    0.824502|    0.012553|
|         545|   -4.583477|   -7.108986|    0.824502|    0.012554|
|         546|   -4.589291|   -7.112860|    0.824502|    0.012555|
|         547|   -4.594581|   -7.116622|    0.824502|    0.012556|
|         548|   -4.600194|   -7.120267|    0.824501|    0.012557|
|         549|   -4.606804|   -7.123796|    0.824500|    0.012558|
|         550|   -4.614798|   -7.127209|    0.824498|    0.012558|
|         551|   -4.624253|   -7.130503|    0.824496|    0.012559|
|         552|   -4.634977|   -7.133702|    0.824493|    0.012560|
|         553|   -4.646591|   -7.136802|    0.824489|    0.012561|
|         554|   -4.658628|   -7.139790|    0.824485|    0.012562|
|         555|   -4.670642|   -7.142690|    0.824480|    0.012562|
|         556|   -4.682295|   -7.145524|    0.824475|    0.012563|
|         557|   -4.693413|   -7.148319|    0.824469|    0.012564|
|         558|   -4.704002|   -7.151133|    0.824462|    0.012565|
|         559|   -4.714208|   -7.153992|    0.824455|    0.012565|
|         560|   -4.724258|   -7.156962|    0.824447|    0.012566|
|         561|   -4.734397|   -7.160115|    0.824439|    0.012567|
|         562|   -4.744836|   -7.163525|    0.824430|    0.012567|
|         563|   -4.755723|   -7.167267|    0.824420|    0.012568|
|         564|   -4.767139|   -7.171419|    0.824411|    0.012568|
|         565|   -4.779105|   -7.176049|    0.824401|    0.012569|
|         566|   -4.791605|   -7.181220|    0.824390|    0.012569|
|         567|   -4.804600|   -7.186985|    0.824380|    0.012569|
|         568|   -4.818054|   -7.193377|    0.824369|    0.012570|
|         569|   -4.831932|   -7.200413|    0.824358|    0.012570|
|         570|   -4.846214|   -7.208083|    0.824348|    0.012570|
|         571|   -4.860878|   -7.216350|    0.824337|    0.012571|
|         572|   -4.875904|   -7.225146|    0.824327|    0.012571|
|         573|   -4.891259|   -7.234364|    0.824317|    0.012571|
|         574|   -4.906888|   -7.243856|    0.824308|    0.012571|
|         575|   -4.922717|   -7.253434|    0.824299|    0.012572|
|         576|   -4.938644|   -7.262872|    0.824290|    0.012572|
|         577|   -4.954545|   -7.271905|    0.824282|    0.012572|
|         578|   -4.970278|   -7.280239|    0.824275|    0.012572|
|         579|   -4.985690|   -7.287572|    0.824269|    0.012572|
|         580|   -5.000620|   -7.293610|    0.824264|    0.012573|
|         581|   -5.014913|   -7.298104|    0.824259|    0.012573|
|         582|   -5.028423|   -7.300867|    0.824256|    0.012573|
|         583|   -5.041023|   -7.301804|    0.824253|    0.012573|
|         584|   -5.052614|   -7.300945|    0.824252|    0.012573|
|         585|   -5.063128|   -7.298421|    0.824251|    0.012573|
|         586|   -5.072534|   -7.294452|    0.824251|    0.012573|
|         587|   -5.080844|   -7.289325|    0.824253|    0.012573|
|         588|   -5.088103|   -7.283364|    0.824255|    0.012573|
|         589|   -5.094394|   -7.276905|    0.824258|    0.012573|
|         590|   -5.099826|   -7.270270|    0.824262|    0.012573|
|         591|   -5.104530|   -7.263753|    0.824267|    0.012573|
|         592|   -5.108646|   -7.257610|    0.824273|    0.012573|
|         593|   -5.112319|   -7.252050|    0.824279|    0.012573|
|         594|   -5.115686|   -7.247239|    0.824287|    0.012573|
|         595|   -5.118876|   -7.243298|    0.824295|    0.012573|
|         596|   -5.122004|   -7.240305|    0.824303|    0.012573|
|         597|   -5.125166|   -7.238302|    0.824312|    0.012573|
|         598|   -5.128438|   -7.237295|    0.824322|    0.012573|
|         599|   -5.131882|   -7.237248|    0.824332|    0.012572|
|         600|   -5.135538|   -7.238097|    0.824343|    0.012572|
|         601|   -5.139431|   -7.239742|    0.824354|    0.012547|
+-----------------------------------------------------------------------+
|Fixed CL Mode                           |Value                         |
+-----------------------------------------------------------------------+
|Current CL                              |0.824354                      |
|Target CL                               |0.824                         |
|Previous AOA                            |2.79155                       |
|Changed AoA by                          |-0.00171414                   |
+-----------------------------------------------------------------------+
+----------------------------------------------------------------+
|  Inner_Iter|    rms[Rho]|     rms[nu]|          CL|          CD|
+----------------------------------------------------------------+
|         602|   -2.959249|   -6.980103|    0.824365|    0.012547|
|         603|   -3.342742|   -7.076191|    0.824377|    0.012546|
|         604|   -3.584445|   -7.115476|    0.824388|    0.012546|
|         605|   -3.662701|   -7.140701|    0.824400|    0.012546|
|         606|   -3.716791|   -7.160625|    0.824412|    0.012545|
|         607|   -3.787042|   -7.177203|    0.824424|    0.012545|
|         608|   -3.874007|   -7.190814|    0.824436|    0.012544|
|         609|   -3.965355|   -7.201586|    0.824448|    0.012544|
|         610|   -4.044932|   -7.209516|    0.824460|    0.012543|
|         611|   -4.104182|   -7.214426|    0.824471|    0.012543|
|         612|   -4.144135|   -7.216283|    0.824483|    0.012542|
|         613|   -4.168013|   -7.215541|    0.824494|    0.012541|
|         614|   -4.179273|   -7.212914|    0.824505|    0.012541|
|         615|   -4.183817|   -7.208970|    0.824516|    0.012540|
|         616|   -4.188631|   -7.203978|    0.824527|    0.012540|
|         617|   -4.198535|   -7.198034|    0.824537|    0.012539|
|         618|   -4.214793|   -7.191279|    0.824546|    0.012538|
|         619|   -4.235693|   -7.183965|    0.824556|    0.012538|
|         620|   -4.258082|   -7.176383|    0.824565|    0.012537|
|         621|   -4.279252|   -7.168768|    0.824573|    0.012536|
|         622|   -4.298299|   -7.161254|    0.824581|    0.012536|
|         623|   -4.316069|   -7.153876|    0.824589|    0.012535|
|         624|   -4.333974|   -7.146622|    0.824596|    0.012535|
|         625|   -4.352846|   -7.139491|    0.824603|    0.012534|
|         626|   -4.372530|   -7.132486|    0.824609|    0.012533|
|         627|   -4.392135|   -7.125645|    0.824615|    0.012533|
|         628|   -4.410504|   -7.119002|    0.824620|    0.012532|
|         629|   -4.426605|   -7.112587|    0.824624|    0.012532|
|         630|   -4.439767|   -7.106447|    0.824628|    0.012531|
|         631|   -4.449805|   -7.100617|    0.824632|    0.012531|
|         632|   -4.457093|   -7.095122|    0.824635|    0.012530|
|         633|   -4.462512|   -7.089934|    0.824638|    0.012530|
|         634|   -4.467242|   -7.085093|    0.824640|    0.012529|
|         635|   -4.472472|   -7.080577|    0.824642|    0.012529|
|         636|   -4.479141|   -7.076335|    0.824643|    0.012528|
|         637|   -4.487786|   -7.072322|    0.824644|    0.012528|
|         638|   -4.498496|   -7.068489|    0.824644|    0.012527|
|         639|   -4.510925|   -7.064787|    0.824644|    0.012527|
|         640|   -4.524344|   -7.061170|    0.824643|    0.012527|
|         641|   -4.537744|   -7.057599|    0.824642|    0.012527|
|         642|   -4.550034|   -7.054060|    0.824640|    0.012526|
|         643|   -4.560313|   -7.050537|    0.824639|    0.012526|
|         644|   -4.568149|   -7.047040|    0.824636|    0.012526|
|         645|   -4.573717|   -7.043541|    0.824634|    0.012526|
|         646|   -4.577724|   -7.040039|    0.824631|    0.012526|
|         647|   -4.581156|   -7.036545|    0.824627|    0.012526|
|         648|   -4.584985|   -7.033066|    0.824623|    0.012526|
|         649|   -4.589951|   -7.029611|    0.824619|    0.012526|
|         650|   -4.596459|   -7.026198|    0.824614|    0.012526|
|         651|   -4.604570|   -7.022830|    0.824609|    0.012526|
|         652|   -4.614062|   -7.019512|    0.824603|    0.012526|
|         653|   -4.624522|   -7.016281|    0.824597|    0.012527|
|         654|   -4.635457|   -7.013115|    0.824590|    0.012527|
|         655|   -4.646408|   -7.010027|    0.824583|    0.012527|
|         656|   -4.657039|   -7.007015|    0.824575|    0.012527|
|         657|   -4.667194|   -7.004102|    0.824567|    0.012528|
|         658|   -4.676896|   -7.001294|    0.824558|    0.012528|
|         659|   -4.686314|   -6.998592|    0.824549|    0.012528|
|         660|   -4.695691|   -6.996020|    0.824540|    0.012528|
|         661|   -4.705283|   -6.993605|    0.824530|    0.012529|
|         662|   -4.715307|   -6.991370|    0.824519|    0.012529|
|         663|   -4.725913|   -6.989339|    0.824508|    0.012529|
|         664|   -4.737182|   -6.987535|    0.824497|    0.012530|
|         665|   -4.749137|   -6.985982|    0.824485|    0.012530|
|         666|   -4.761765|   -6.984704|    0.824474|    0.012530|
|         667|   -4.775037|   -6.983729|    0.824462|    0.012531|
|         668|   -4.788925|   -6.983083|    0.824450|    0.012531|
|         669|   -4.803410|   -6.982790|    0.824438|    0.012532|
|         670|   -4.818491|   -6.982868|    0.824425|    0.012532|
|         671|   -4.834171|   -6.983327|    0.824413|    0.012532|
|         672|   -4.850458|   -6.984169|    0.824401|    0.012533|
|         673|   -4.867348|   -6.985385|    0.824390|    0.012533|
|         674|   -4.884821|   -6.986956|    0.824379|    0.012534|
|         675|   -4.902834|   -6.988849|    0.824368|    0.012534|
|         676|   -4.921314|   -6.991019|    0.824357|    0.012534|
|         677|   -4.940160|   -6.993406|    0.824348|    0.012535|
|         678|   -4.959239|   -6.995949|    0.824338|    0.012535|
|         679|   -4.978391|   -6.998554|    0.824330|    0.012536|
|         680|   -4.997428|   -7.001128|    0.824322|    0.012536|
|         681|   -5.016140|   -7.003574|    0.824315|    0.012537|
|         682|   -5.034296|   -7.005798|    0.824309|    0.012537|
|         683|   -5.051659|   -7.007710|    0.824304|    0.012537|
|         684|   -5.067988|   -7.009218|    0.824299|    0.012538|
|         685|   -5.083059|   -7.010253|    0.824296|    0.012538|
|         686|   -5.096674|   -7.010770|    0.824293|    0.012539|
|         687|   -5.108683|   -7.010745|    0.824292|    0.012539|
|         688|   -5.118991|   -7.010183|    0.824291|    0.012539|
|         689|   -5.127573|   -7.009115|    0.824291|    0.012540|
|         690|   -5.134471|   -7.007595|    0.824292|    0.012540|
|         691|   -5.139789|   -7.005700|    0.824294|    0.012540|
|         692|   -5.143684|   -7.003520|    0.824296|    0.012541|
|         693|   -5.146348|   -7.001159|    0.824300|    0.012541|
|         694|   -5.147992|   -6.998712|    0.824304|    0.012541|
|         695|   -5.148829|   -6.996299|    0.824309|    0.012542|
|         696|   -5.149066|   -6.994017|    0.824314|    0.012542|
|         697|   -5.148891|   -6.991955|    0.824320|    0.012542|
|         698|   -5.148469|   -6.990190|    0.824327|    0.012542|
|         699|   -5.147943|   -6.988783|    0.824334|    0.012543|
|         700|   -5.147428|   -6.987781|    0.824341|    0.012543|
|         701|   -5.147018|   -6.987213|    0.824350|    0.012518|
+-----------------------------------------------------------------------+
|Fixed CL Mode                           |Value                         |
+-----------------------------------------------------------------------+
|Current CL                              |0.82435                       |
|Target CL                               |0.824                         |
|Previous AOA                            |2.78983                       |
|Changed AoA by                          |-0.00170699                   |
+-----------------------------------------------------------------------+
+----------------------------------------------------------------+
|  Inner_Iter|    rms[Rho]|     rms[nu]|          CL|          CD|
+----------------------------------------------------------------+
|         702|   -2.961112|   -6.869440|    0.824358|    0.012519|
|         703|   -3.344753|   -6.921114|    0.824367|    0.012519|
|         704|   -3.586287|   -6.939204|    0.824376|    0.012519|
|         705|   -3.663896|   -6.950162|    0.824385|    0.012519|
|         706|   -3.717412|   -6.958691|    0.824394|    0.012519|
|         707|   -3.787175|   -6.965888|    0.824403|    0.012519|
|         708|   -3.873703|   -6.972079|    0.824412|    0.012520|
|         709|   -3.964768|   -6.977433|    0.824422|    0.012520|
|         710|   -4.044438|   -6.982030|    0.824431|    0.012520|
|         711|   -4.104247|   -6.985841|    0.824440|    0.012520|
|         712|   -4.145062|   -6.988843|    0.824449|    0.012520|
|         713|   -4.169852|   -6.991139|    0.824458|    0.012520|
|         714|   -4.181856|   -6.992901|    0.824467|    0.012520|
|         715|   -4.186880|   -6.994246|    0.824475|    0.012520|
|         716|   -4.191955|   -6.995185|    0.824483|    0.012520|
|         717|   -4.201990|   -6.995686|    0.824491|    0.012520|
|         718|   -4.218332|   -6.995743|    0.824498|    0.012520|
|         719|   -4.239322|   -6.995380|    0.824505|    0.012520|
|         720|   -4.261842|   -6.994676|    0.824512|    0.012520|
|         721|   -4.283213|   -6.993709|    0.824518|    0.012520|
|         722|   -4.302546|   -6.992528|    0.824523|    0.012520|
|         723|   -4.320696|   -6.991154|    0.824528|    0.012520|
|         724|   -4.339067|   -6.989597|    0.824533|    0.012520|
|         725|   -4.358465|   -6.987875|    0.824537|    0.012520|
|         726|   -4.378693|   -6.986016|    0.824540|    0.012520|
|         727|   -4.398797|   -6.984067|    0.824543|    0.012520|
|         728|   -4.417553|   -6.982084|    0.824546|    0.012520|
|         729|   -4.433883|   -6.980125|    0.824548|    0.012520|
|         730|   -4.447101|   -6.978243|    0.824549|    0.012520|
|         731|   -4.457056|   -6.976488|    0.824550|    0.012520|
|         732|   -4.464182|   -6.974897|    0.824550|    0.012520|
|         733|   -4.469440|   -6.973482|    0.824550|    0.012520|
|         734|   -4.474078|   -6.972285|    0.824550|    0.012519|
|         735|   -4.479337|   -6.971313|    0.824549|    0.012519|
|         736|   -4.486179|   -6.970540|    0.824547|    0.012519|
|         737|   -4.495149|   -6.969937|    0.824545|    0.012519|
|         738|   -4.506330|   -6.969475|    0.824543|    0.012519|
|         739|   -4.519355|   -6.969113|    0.824540|    0.012518|
|         740|   -4.533458|   -6.968814|    0.824537|    0.012518|
|         741|   -4.547581|   -6.968544|    0.824533|    0.012518|
|         742|   -4.560565|   -6.968277|    0.824529|    0.012518|
|         743|   -4.571445|   -6.967994|    0.824525|    0.012518|
|         744|   -4.579744|   -6.967684|    0.824520|    0.012518|
|         745|   -4.585626|   -6.967306|    0.824515|    0.012517|
|         746|   -4.589827|   -6.966857|    0.824509|    0.012517|
|         747|   -4.593383|   -6.966335|    0.824504|    0.012517|
|         748|   -4.597318|   -6.965739|    0.824497|    0.012517|
|         749|   -4.602417|   -6.965067|    0.824491|    0.012517|
|         750|   -4.609107|   -6.964332|    0.824484|    0.012517|
|         751|   -4.617460|   -6.963540|    0.824477|    0.012516|
|         752|   -4.627244|   -6.962682|    0.824469|    0.012516|
|         753|   -4.638025|   -6.961792|    0.824461|    0.012516|
|         754|   -4.649286|   -6.960859|    0.824453|    0.012516|
|         755|   -4.660538|   -6.959891|    0.824444|    0.012516|
|         756|   -4.671421|   -6.958888|    0.824434|    0.012516|
|         757|   -4.681766|   -6.957858|    0.824425|    0.012516|
|         758|   -4.691594|   -6.956833|    0.824415|    0.012516|
|         759|   -4.701079|   -6.955833|    0.824404|    0.012516|
|         760|   -4.710479|   -6.954850|    0.824393|    0.012516|
|         761|   -4.720062|   -6.953922|    0.824382|    0.012515|
|         762|   -4.730056|   -6.953076|    0.824370|    0.012515|
|         763|   -4.740620|   -6.952341|    0.824358|    0.012515|
|         764|   -4.751835|   -6.951744|    0.824346|    0.012515|
|         765|   -4.763724|   -6.951315|    0.824333|    0.012515|
|         766|   -4.776270|   -6.951082|    0.824320|    0.012515|
|         767|   -4.789440|   -6.951078|    0.824307|    0.012515|
|         768|   -4.803200|   -6.951338|    0.824294|    0.012515|
|         769|   -4.817534|   -6.951894|    0.824281|    0.012515|
|         770|   -4.832435|   -6.952774|    0.824268|    0.012515|
|         771|   -4.847911|   -6.954001|    0.824255|    0.012515|
|         772|   -4.863971|   -6.955589|    0.824243|    0.012515|
|         773|   -4.880615|   -6.957542|    0.824231|    0.012515|
|         774|   -4.897830|   -6.959854|    0.824219|    0.012515|
|         775|   -4.915575|   -6.962504|    0.824207|    0.012515|
|         776|   -4.933786|   -6.965459|    0.824196|    0.012515|
|         777|   -4.952370|   -6.968670|    0.824186|    0.012515|
|         778|   -4.971202|   -6.972074|    0.824176|    0.012515|
|         779|   -4.990134|   -6.975597|    0.824167|    0.012515|
|         780|   -5.008992|   -6.979164|    0.824159|    0.012515|
|         781|   -5.027579|   -6.982669|    0.824152|    0.012515|
|         782|   -5.045682|   -6.986018|    0.824146|    0.012516|
|         783|   -5.063079|   -6.989110|    0.824140|    0.012516|
|         784|   -5.079544|   -6.991863|    0.824135|    0.012516|
|         785|   -5.094862|   -6.994195|    0.824132|    0.012516|
|         786|   -5.108841|   -6.996037|    0.824129|    0.012516|
|         787|   -5.121327|   -6.997345|    0.824127|    0.012516|
|         788|   -5.132219|   -6.998106|    0.824126|    0.012517|
|         789|   -5.141473|   -6.998331|    0.824126|    0.012517|
|         790|   -5.149109|   -6.998055|    0.824127|    0.012517|
|         791|   -5.155205|   -6.997351|    0.824129|    0.012517|
|         792|   -5.159891|   -6.996299|    0.824132|    0.012517|
|         793|   -5.163332|   -6.994993|    0.824135|    0.012518|
|         794|   -5.165716|   -6.993538|    0.824139|    0.012518|
|         795|   -5.167239|   -6.992041|    0.824144|    0.012518|
|         796|   -5.168092|   -6.990607|    0.824149|    0.012518|
|         797|   -5.168453|   -6.989333|    0.824156|    0.012519|
|         798|   -5.168481|   -6.988305|    0.824162|    0.012519|
|         799|   -5.168314|   -6.987596|    0.824169|    0.012519|
|         800|   -5.168067|   -6.987261|    0.824177|    0.012519|
|         801|   -5.167835|   -6.987341|    0.824185|    0.012507|
+-----------------------------------------------------------------------+
|Fixed CL Mode                           |Value                         |
+-----------------------------------------------------------------------+
|Current CL                              |0.824185                      |
|Target CL                               |0.824                         |
|Previous AOA                            |2.78813                       |
|Changed AoA by                          |-0.000884333                  |
+-----------------------------------------------------------------------+
+----------------------------------------------------------------+
|  Inner_Iter|    rms[Rho]|     rms[nu]|          CL|          CD|
+----------------------------------------------------------------+
|         802|   -3.246718|   -6.949032|    0.824193|    0.012507|
|         803|   -3.629810|   -6.968468|    0.824202|    0.012507|
|         804|   -3.869236|   -6.975528|    0.824211|    0.012507|
|         805|   -3.945276|   -6.980432|    0.824220|    0.012508|
|         806|   -3.997958|   -6.984768|    0.824229|    0.012508|
|         807|   -4.066915|   -6.988864|    0.824238|    0.012508|
|         808|   -4.152483|   -6.992789|    0.824247|    0.012508|
|         809|   -4.242715|   -6.996550|    0.824256|    0.012509|
|         810|   -4.322323|   -7.000120|    0.824265|    0.012509|
|         811|   -4.383229|   -7.003430|    0.824274|    0.012509|
|         812|   -4.426013|   -7.006411|    0.824283|    0.012509|
|         813|   -4.453016|   -7.009028|    0.824291|    0.012510|
|         814|   -4.466874|   -7.011274|    0.824300|    0.012510|
|         815|   -4.473072|   -7.013136|    0.824307|    0.012510|
|         816|   -4.478678|   -7.014583|    0.824315|    0.012510|
|         817|   -4.488808|   -7.015585|    0.824322|    0.012511|
|         818|   -4.505017|   -7.016131|    0.824329|    0.012511|
|         819|   -4.525822|   -7.016246|    0.824335|    0.012511|
|         820|   -4.548268|   -7.015979|    0.824341|    0.012511|
|         821|   -4.569811|   -7.015391|    0.824346|    0.012511|
|         822|   -4.589642|   -7.014545|    0.824351|    0.012512|
|         823|   -4.608606|   -7.013497|    0.824355|    0.012512|
|         824|   -4.628031|   -7.012309|    0.824358|    0.012512|
|         825|   -4.648601|   -7.011036|    0.824362|    0.012512|
|         826|   -4.669960|   -7.009779|    0.824364|    0.012512|
|         827|   -4.690972|   -7.008575|    0.824366|    0.012512|
|         828|   -4.710244|   -7.007496|    0.824368|    0.012512|
|         829|   -4.726599|   -7.006602|    0.824369|    0.012513|
|         830|   -4.739365|   -7.005945|    0.824369|    0.012513|
|         831|   -4.748511|   -7.005566|    0.824369|    0.012513|
|         832|   -4.754662|   -7.005500|    0.824368|    0.012513|
|         833|   -4.758958|   -7.005764|    0.824367|    0.012513|
|         834|   -4.762770|   -7.006361|    0.824366|    0.012513|
|         835|   -4.767378|   -7.007284|    0.824364|    0.012513|
|         836|   -4.773723|   -7.008512|    0.824362|    0.012513|
|         837|   -4.782281|   -7.010021|    0.824359|    0.012513|
|         838|   -4.793046|   -7.011775|    0.824356|    0.012513|
|         839|   -4.805553|   -7.013741|    0.824353|    0.012513|
|         840|   -4.818947|   -7.015875|    0.824349|    0.012513|
|         841|   -4.832103|   -7.018136|    0.824345|    0.012513|
|         842|   -4.843841|   -7.020481|    0.824341|    0.012513|
|         843|   -4.853228|   -7.022872|    0.824337|    0.012513|
|         844|   -4.859867|   -7.025274|    0.824332|    0.012513|
|         845|   -4.864019|   -7.027657|    0.824327|    0.012513|
|         846|   -4.866491|   -7.029994|    0.824323|    0.012513|
|         847|   -4.868351|   -7.032265|    0.824318|    0.012513|
|         848|   -4.870613|   -7.034453|    0.824312|    0.012513|
|         849|   -4.874021|   -7.036549|    0.824307|    0.012513|
|         850|   -4.878962|   -7.038541|    0.824302|    0.012513|
|         851|   -4.885472|   -7.040423|    0.824296|    0.012514|
|         852|   -4.893307|   -7.042191|    0.824291|    0.012514|
|         853|   -4.902047|   -7.043851|    0.824285|    0.012514|
|         854|   -4.911211|   -7.045406|    0.824279|    0.012514|
|         855|   -4.920365|   -7.046848|    0.824273|    0.012514|
|         856|   -4.929207|   -7.048175|    0.824267|    0.012514|
|         857|   -4.937614|   -7.049385|    0.824261|    0.012515|
|         858|   -4.945632|   -7.050474|    0.824255|    0.012515|
|         859|   -4.953438|   -7.051442|    0.824249|    0.012515|
|         860|   -4.961269|   -7.052286|    0.824242|    0.012515|
|         861|   -4.969366|   -7.053008|    0.824235|    0.012516|
|         862|   -4.977926|   -7.053609|    0.824229|    0.012516|
|         863|   -4.987081|   -7.054097|    0.824222|    0.012516|
|         864|   -4.996895|   -7.054483|    0.824215|    0.012516|
|         865|   -5.007384|   -7.054783|    0.824208|    0.012517|
|         866|   -5.018528|   -7.055018|    0.824201|    0.012517|
|         867|   -5.030295|   -7.055214|    0.824194|    0.012517|
|         868|   -5.042656|   -7.055404|    0.824187|    0.012518|
|         869|   -5.055593|   -7.055623|    0.824180|    0.012518|
|         870|   -5.069098|   -7.055911|    0.824173|    0.012518|
|         871|   -5.083172|   -7.056306|    0.824166|    0.012519|
|         872|   -5.097816|   -7.056845|    0.824159|    0.012519|
|         873|   -5.113023|   -7.057562|    0.824152|    0.012519|
|         874|   -5.128768|   -7.058484|    0.824145|    0.012519|
|         875|   -5.145004|   -7.059638|    0.824139|    0.012520|
|         876|   -5.161661|   -7.061038|    0.824133|    0.012520|
|         877|   -5.178637|   -7.062682|    0.824127|    0.012520|
|         878|   -5.195808|   -7.064562|    0.824122|    0.012521|
|         879|   -5.213020|   -7.066659|    0.824116|    0.012521|
|         880|   -5.230097|   -7.068945|    0.824112|    0.012521|
|         881|   -5.246841|   -7.071379|    0.824107|    0.012521|
|         882|   -5.263039|   -7.073913|    0.824103|    0.012521|
|         883|   -5.278468|   -7.076490|    0.824100|    0.012522|
|         884|   -5.292908|   -7.079057|    0.824096|    0.012522|
|         885|   -5.306147|   -7.081548|    0.824094|    0.012522|
|         886|   -5.318005|   -7.083901|    0.824092|    0.012522|
|         887|   -5.328338|   -7.086061|    0.824090|    0.012522|
|         888|   -5.337056|   -7.087980|    0.824089|    0.012523|
|         889|   -5.344128|   -7.089618|    0.824088|    0.012523|
|         890|   -5.349585|   -7.090945|    0.824088|    0.012523|
|         891|   -5.353515|   -7.091948|    0.824088|    0.012523|
|         892|   -5.356056|   -7.092629|    0.824089|    0.012523|
|         893|   -5.357378|   -7.093007|    0.824090|    0.012523|
|         894|   -5.357675|   -7.093113|    0.824091|    0.012523|
|         895|   -5.357149|   -7.092990|    0.824093|    0.012524|
|         896|   -5.355997|   -7.092691|    0.824096|    0.012524|
|         897|   -5.354404|   -7.092275|    0.824098|    0.012524|
|         898|   -5.352540|   -7.091804|    0.824101|    0.012524|
|         899|   -5.350554|   -7.091338|    0.824105|    0.012524|
|         900|   -5.348575|   -7.090930|    0.824108|    0.012524|
|         901|   -5.346711|   -7.090628|    0.824112|    0.012516|
+-----------------------------------------------------------------------+
|Fixed CL Mode                           |Value                         |
+-----------------------------------------------------------------------+
|Current CL                              |0.824112                      |
|Target CL                               |0.824                         |
|Previous AOA                            |2.78724                       |
[...]
|        5298|   -6.015415|   -7.932878|    0.824239|    0.012522|
|        5299|   -6.021630|   -7.937303|    0.824239|    0.012522|
|        5300|   -6.027559|   -7.941809|    0.824239|    0.012522|
|        5301|   -6.033170|   -7.946395|    0.824239|    0.012522|
|        5302|   -6.038439|   -7.951055|    0.824240|    0.012522|
|        5303|   -6.043351|   -7.955779|    0.824240|    0.012522|
|        5304|   -6.047899|   -7.960555|    0.824240|    0.012521|
|        5305|   -6.052085|   -7.965368|    0.824240|    0.012521|
|        5306|   -6.055919|   -7.970201|    0.824240|    0.012521|
|        5307|   -6.059418|   -7.975037|    0.824240|    0.012521|
|        5308|   -6.062608|   -7.979861|    0.824240|    0.012521|
|        5309|   -6.065519|   -7.984661|    0.824241|    0.012521|
|        5310|   -6.068185|   -7.989423|    0.824241|    0.012521|
|        5311|   -6.070647|   -7.994142|    0.824241|    0.012521|
|        5312|   -6.072946|   -7.998814|    0.824241|    0.012521|
|        5313|   -6.075122|   -8.003439|    0.824241|    0.012521|
|        5314|   -6.077220|   -8.008022|    0.824241|    0.012521|
|        5315|   -6.079278|   -8.012570|    0.824242|    0.012521|
|        5316|   -6.081337|   -8.017096|    0.824242|    0.012521|
|        5317|   -6.083431|   -8.021614|    0.824242|    0.012522|
|        5318|   -6.085592|   -8.026141|    0.824242|    0.012522|
|        5319|   -6.087849|   -8.030692|    0.824242|    0.012522|
|        5320|   -6.090224|   -8.035287|    0.824243|    0.012522|
|        5321|   -6.092736|   -8.039942|    0.824243|    0.012522|
|        5322|   -6.095396|   -8.044672|    0.824243|    0.012522|
|        5323|   -6.098213|   -8.049491|    0.824243|    0.012522|
|        5324|   -6.101188|   -8.054408|    0.824243|    0.012522|
|        5325|   -6.104317|   -8.059432|    0.824244|    0.012522|
|        5326|   -6.107591|   -8.064565|    0.824244|    0.012522|
|        5327|   -6.110996|   -8.069808|    0.824244|    0.012522|
|        5328|   -6.114512|   -8.075156|    0.824244|    0.012522|
|        5329|   -6.118117|   -8.080601|    0.824245|    0.012522|
|        5330|   -6.121783|   -8.086132|    0.824245|    0.012523|
|        5331|   -6.125480|   -8.091736|    0.824245|    0.012523|
|        5332|   -6.129174|   -8.097395|    0.824245|    0.012523|
|        5333|   -6.132833|   -8.103091|    0.824246|    0.012523|
|        5334|   -6.136422|   -8.108804|    0.824246|    0.012523|
|        5335|   -6.139908|   -8.114515|    0.824246|    0.012523|
|        5336|   -6.143260|   -8.120205|    0.824246|    0.012523|
|        5337|   -6.146449|   -8.125855|    0.824246|    0.012523|
|        5338|   -6.149452|   -8.131449|    0.824247|    0.012523|
|        5339|   -6.152251|   -8.136974|    0.824247|    0.012523|
|        5340|   -6.154834|   -8.142420|    0.824247|    0.012523|
|        5341|   -6.157193|   -8.147780|    0.824247|    0.012524|
|        5342|   -6.159332|   -8.153052|    0.824247|    0.012524|
|        5343|   -6.161257|   -8.158239|    0.824248|    0.012524|
|        5344|   -6.162984|   -8.163345|    0.824248|    0.012524|
|        5345|   -6.164534|   -8.168380|    0.824248|    0.012524|
|        5346|   -6.165934|   -8.173358|    0.824248|    0.012524|
|        5347|   -6.167214|   -8.178293|    0.824248|    0.012524|
|        5348|   -6.168411|   -8.183203|    0.824249|    0.012524|
|        5349|   -6.169560|   -8.188108|    0.824249|    0.012524|
|        5350|   -6.170702|   -8.193031|    0.824249|    0.012524|
|        5351|   -6.171876|   -8.197992|    0.824249|    0.012524|
|        5352|   -6.173120|   -8.203012|    0.824249|    0.012524|
|        5353|   -6.174473|   -8.208112|    0.824249|    0.012524|
|        5354|   -6.175969|   -8.213309|    0.824250|    0.012524|
|        5355|   -6.177643|   -8.218620|    0.824250|    0.012524|
|        5356|   -6.179525|   -8.224058|    0.824250|    0.012524|
|        5357|   -6.181639|   -8.229635|    0.824250|    0.012524|
|        5358|   -6.184011|   -8.235356|    0.824250|    0.012525|
|        5359|   -6.186657|   -8.241227|    0.824250|    0.012525|
|        5360|   -6.189592|   -8.247246|    0.824250|    0.012525|
|        5361|   -6.192826|   -8.253412|    0.824250|    0.012525|
|        5362|   -6.196364|   -8.259716|    0.824251|    0.012525|
|        5363|   -6.200209|   -8.266148|    0.824251|    0.012525|
|        5364|   -6.204355|   -8.272695|    0.824251|    0.012525|
|        5365|   -6.208795|   -8.279338|    0.824251|    0.012525|
|        5366|   -6.213517|   -8.286059|    0.824251|    0.012525|
|        5367|   -6.218502|   -8.292835|    0.824251|    0.012525|
|        5368|   -6.223730|   -8.299645|    0.824251|    0.012525|
|        5369|   -6.229175|   -8.306464|    0.824251|    0.012524|
|        5370|   -6.234807|   -8.313267|    0.824251|    0.012524|
|        5371|   -6.240592|   -8.320031|    0.824251|    0.012524|
|        5372|   -6.246493|   -8.326732|    0.824251|    0.012524|
|        5373|   -6.252467|   -8.333349|    0.824251|    0.012524|
|        5374|   -6.258475|   -8.339862|    0.824251|    0.012524|
|        5375|   -6.264472|   -8.346256|    0.824251|    0.012524|
|        5376|   -6.270413|   -8.352518|    0.824252|    0.012524|
|        5377|   -6.276253|   -8.358639|    0.824252|    0.012524|
|        5378|   -6.281947|   -8.364615|    0.824252|    0.012524|
|        5379|   -6.287454|   -8.370448|    0.824252|    0.012524|
|        5380|   -6.292733|   -8.376140|    0.824252|    0.012524|
|        5381|   -6.297750|   -8.381701|    0.824252|    0.012524|
|        5382|   -6.302474|   -8.387141|    0.824252|    0.012524|
|        5383|   -6.306879|   -8.392475|    0.824252|    0.012524|
|        5384|   -6.310947|   -8.397719|    0.824252|    0.012524|
|        5385|   -6.314665|   -8.402887|    0.824252|    0.012524|
|        5386|   -6.318026|   -8.407994|    0.824253|    0.012524|
|        5387|   -6.321031|   -8.413056|    0.824253|    0.012523|
|        5388|   -6.323685|   -8.418089|    0.824253|    0.012523|
|        5389|   -6.326000|   -8.423106|    0.824253|    0.012523|
|        5390|   -6.327990|   -8.428116|    0.824253|    0.012523|
|        5391|   -6.329675|   -8.433125|    0.824253|    0.012523|
|        5392|   -6.331077|   -8.438132|    0.824254|    0.012523|
|        5393|   -6.332217|   -8.443134|    0.824254|    0.012523|
|        5394|   -6.333120|   -8.448123|    0.824254|    0.012523|
|        5395|   -6.333811|   -8.453085|    0.824254|    0.012523|
|        5396|   -6.334311|   -8.458001|    0.824255|    0.012523|
|        5397|   -6.334643|   -8.462851|    0.824255|    0.012523|
|        5398|   -6.334827|   -8.467608|    0.824255|    0.012523|
|        5399|   -6.334882|   -8.472246|    0.824255|    0.012522|
|        5400|   -6.334824|   -8.476734|    0.824256|    0.012522|
|        5401|   -6.334667|   -8.481042|    0.824256|    0.012522|
|        5402|   -6.334424|   -8.485142|    0.824256|    0.012522|
|        5403|   -6.334106|   -8.489006|    0.824256|    0.012522|
|        5404|   -6.333722|   -8.492610|    0.824257|    0.012522|
|        5405|   -6.333278|   -8.495934|    0.824257|    0.012522|
|        5406|   -6.332781|   -8.498965|    0.824257|    0.012522|
|        5407|   -6.332237|   -8.501679|    0.824257|    0.012522|
|        5408|   -6.331649|   -8.504069|    0.824258|    0.012522|
|        5409|   -6.331022|   -8.506142|    0.824258|    0.012522|
|        5410|   -6.330358|   -8.507913|    0.824258|    0.012522|
|        5411|   -6.329662|   -8.509402|    0.824259|    0.012521|
|        5412|   -6.328935|   -8.510631|    0.824259|    0.012521|
|        5413|   -6.328183|   -8.511624|    0.824259|    0.012521|
|        5414|   -6.327408|   -8.512409|    0.824259|    0.012521|
|        5415|   -6.326613|   -8.513014|    0.824260|    0.012521|
|        5416|   -6.325804|   -8.513465|    0.824260|    0.012521|
|        5417|   -6.324984|   -8.513791|    0.824260|    0.012521|
|        5418|   -6.324160|   -8.514015|    0.824260|    0.012521|
|        5419|   -6.323337|   -8.514161|    0.824261|    0.012521|
|        5420|   -6.322522|   -8.514251|    0.824261|    0.012521|
|        5421|   -6.321722|   -8.514302|    0.824261|    0.012521|
|        5422|   -6.320946|   -8.514328|    0.824261|    0.012521|
|        5423|   -6.320201|   -8.514342|    0.824262|    0.012521|
|        5424|   -6.319499|   -8.514351|    0.824262|    0.012521|
|        5425|   -6.318849|   -8.514361|    0.824262|    0.012521|
|        5426|   -6.318264|   -8.514374|    0.824262|    0.012521|
|        5427|   -6.317756|   -8.514390|    0.824262|    0.012521|
|        5428|   -6.317337|   -8.514408|    0.824263|    0.012521|
|        5429|   -6.317023|   -8.514427|    0.824263|    0.012521|
|        5430|   -6.316827|   -8.514441|    0.824263|    0.012521|
|        5431|   -6.316765|   -8.514449|    0.824263|    0.012521|
|        5432|   -6.316853|   -8.514447|    0.824263|    0.012521|
|        5433|   -6.317105|   -8.514433|    0.824263|    0.012521|
|        5434|   -6.317537|   -8.514406|    0.824264|    0.012521|
|        5435|   -6.318165|   -8.514379|    0.824264|    0.012521|
|        5436|   -6.319004|   -8.514346|    0.824264|    0.012521|
|        5437|   -6.320068|   -8.514308|    0.824264|    0.012521|
|        5438|   -6.321370|   -8.514266|    0.824264|    0.012521|
|        5439|   -6.322923|   -8.514226|    0.824264|    0.012521|
|        5440|   -6.324738|   -8.514194|    0.824264|    0.012521|
|        5441|   -6.326822|   -8.514176|    0.824264|    0.012521|
|        5442|   -6.329185|   -8.514183|    0.824265|    0.012521|
|        5443|   -6.331831|   -8.514222|    0.824265|    0.012521|
|        5444|   -6.334763|   -8.514304|    0.824265|    0.012521|
|        5445|   -6.337980|   -8.514437|    0.824265|    0.012521|
|        5446|   -6.341481|   -8.514632|    0.824265|    0.012521|
|        5447|   -6.345260|   -8.514895|    0.824265|    0.012521|
|        5448|   -6.349307|   -8.515236|    0.824265|    0.012522|
|        5449|   -6.353611|   -8.515660|    0.824265|    0.012522|
|        5450|   -6.358156|   -8.516174|    0.824265|    0.012522|
|        5451|   -6.362922|   -8.516783|    0.824265|    0.012522|
|        5452|   -6.367887|   -8.517491|    0.824265|    0.012522|
|        5453|   -6.373023|   -8.518300|    0.824265|    0.012522|
|        5454|   -6.378299|   -8.519212|    0.824265|    0.012522|
|        5455|   -6.383682|   -8.520228|    0.824265|    0.012522|
|        5456|   -6.389134|   -8.521349|    0.824265|    0.012522|
|        5457|   -6.394614|   -8.522574|    0.824265|    0.012522|
|        5458|   -6.400078|   -8.523901|    0.824265|    0.012522|
|        5459|   -6.405483|   -8.525329|    0.824265|    0.012522|
|        5460|   -6.410780|   -8.526855|    0.824265|    0.012522|
|        5461|   -6.415923|   -8.528476|    0.824265|    0.012523|
|        5462|   -6.420865|   -8.530190|    0.824265|    0.012523|
|        5463|   -6.425561|   -8.531992|    0.824265|    0.012523|
|        5464|   -6.429969|   -8.533879|    0.824265|    0.012523|
|        5465|   -6.434050|   -8.535847|    0.824265|    0.012523|
|        5466|   -6.437771|   -8.537892|    0.824265|    0.012523|
|        5467|   -6.441102|   -8.540008|    0.824265|    0.012523|
|        5468|   -6.444024|   -8.542191|    0.824265|    0.012523|
|        5469|   -6.446522|   -8.544436|    0.824265|    0.012523|
|        5470|   -6.448590|   -8.546736|    0.824265|    0.012523|
|        5471|   -6.450230|   -8.549084|    0.824265|    0.012523|
|        5472|   -6.451451|   -8.551474|    0.824264|    0.012523|
|        5473|   -6.452269|   -8.553897|    0.824264|    0.012523|
|        5474|   -6.452708|   -8.556345|    0.824264|    0.012523|
|        5475|   -6.452795|   -8.558809|    0.824264|    0.012523|
|        5476|   -6.452565|   -8.561278|    0.824264|    0.012524|
|        5477|   -6.452054|   -8.563742|    0.824264|    0.012524|
|        5478|   -6.451302|   -8.566190|    0.824264|    0.012524|
|        5479|   -6.450350|   -8.568609|    0.824264|    0.012524|
|        5480|   -6.449238|   -8.570987|    0.824264|    0.012524|
|        5481|   -6.448009|   -8.573311|    0.824264|    0.012524|
|        5482|   -6.446703|   -8.575569|    0.824263|    0.012524|
|        5483|   -6.445357|   -8.577747|    0.824263|    0.012524|
|        5484|   -6.444010|   -8.579834|    0.824263|    0.012524|
|        5485|   -6.442694|   -8.581817|    0.824263|    0.012524|
|        5486|   -6.441441|   -8.583685|    0.824263|    0.012524|
|        5487|   -6.440279|   -8.585428|    0.824263|    0.012524|
|        5488|   -6.439234|   -8.587037|    0.824263|    0.012524|
|        5489|   -6.438329|   -8.588505|    0.824263|    0.012524|
|        5490|   -6.437583|   -8.589825|    0.824263|    0.012524|
|        5491|   -6.437014|   -8.590993|    0.824263|    0.012524|
|        5492|   -6.436635|   -8.592008|    0.824262|    0.012524|
|        5493|   -6.436459|   -8.592869|    0.824262|    0.012524|
|        5494|   -6.436495|   -8.593576|    0.824262|    0.012524|
|        5495|   -6.436750|   -8.594134|    0.824262|    0.012524|
|        5496|   -6.437231|   -8.594547|    0.824262|    0.012524|
|        5497|   -6.437940|   -8.594822|    0.824262|    0.012524|
|        5498|   -6.438880|   -8.594967|    0.824262|    0.012523|
|        5499|   -6.440051|   -8.594990|    0.824262|    0.012509|
+-----------------------------------------------------------------------+
|Fixed CL Mode (Finite Difference)       |Value                         |
+-----------------------------------------------------------------------+
|Delta CL / Delta AoA                    |0.261803                      |
|Delta CD / Delta CL                     |0.0211275                     |
|Delta CMz / Delta CL                    |0.0237734                     |
+-----------------------------------------------------------------------+
Writing Flow Meta-Data file: flow.meta

----------------------------- Solver Exit -------------------------------

Maximum number of iterations reached (ITER = 5500) before convergence.
+-----------------------------------------------------------------------+
|      Convergence Field     |     Value    |   Criterion  |  Converged |
+-----------------------------------------------------------------------+
|                    rms[Rho]|      -6.44005|         < -12|          No|
+-----------------------------------------------------------------------+
-------------------------------------------------------------------------

--------------------------- Finalizing Solver ---------------------------
Deleted CNumerics container.
Deleted CIntegration container.
Deleted CSolver container.
Deleted CIteration container.
Deleted CInterface container.
Deleted CGeometry container.
Deleted CFreeFormDefBox class.
Deleted CSurfaceMovement class.
Deleted CVolumetricMovement class.
Deleted CConfig container.
Deleted nInst container.
Deleted COutput class.
-------------------------------------------------------------------------

------------------------- Exit Success (SU2_CFD) ------------------------


-------------------------------------------------------------------------
|    ___ _   _ ___                                                      |
|   / __| | | |_  )   Release 8.0.0 "Harrier"                           |
|   \__ \ |_| |/ /                                                      |
|   |___/\___//___|   Suite (Solution Exporting Code)                   |
|                                                                       |
-------------------------------------------------------------------------
| SU2 Project Website: https://su2code.github.io                        |
|                                                                       |
| The SU2 Project is maintained by the SU2 Foundation                   |
| (http://su2foundation.org)                                            |
-------------------------------------------------------------------------
| Copyright 2012-2023, SU2 Contributors                                 |
|                                                                       |
| SU2 is free software; you can redistribute it and/or                  |
| modify it under the terms of the GNU Lesser General Public            |
| License as published by the Free Software Foundation; either          |
| version 2.1 of the License, or (at your option) any later version.    |
|                                                                       |
| SU2 is distributed in the hope that it will be useful,                |
| but WITHOUT ANY WARRANTY; without even the implied warranty of        |
| MERCHANTABILITY or FITNESS FOR A PARTICULAR PURPOSE. See the GNU      |
| Lesser General Public License for more details.                       |
|                                                                       |
| You should have received a copy of the GNU Lesser General Public      |
| License along with SU2. If not, see <http://www.gnu.org/licenses/>.   |
-------------------------------------------------------------------------

----------------- Physical Case Definition ( Zone 0 ) -------------------
Input mesh file name: mesh_RAE2822_turb_deform.su2

-------------------- Output Information ( Zone 0 ) ----------------------
The tabular file format is CSV (.csv).
Flow variables file name: flow.

------------- Config File Boundary Information ( Zone 0 ) ---------------
+-----------------------------------------------------------------------+
|                        Marker Type|                        Marker Name|
+-----------------------------------------------------------------------+
|                          Far-field|                           FARFIELD|
+-----------------------------------------------------------------------+
|                     Heat flux wall|                            AIRFOIL|
+-----------------------------------------------------------------------+
Two dimensional problem.
13937 grid points before partitioning.
22842 volume elements before partitioning.
2 surface markers.
192 boundary elements in index 0 (Marker = AIRFOIL).
40 boundary elements in index 1 (Marker = FARFIELD).
Executing the partitioning functions.
Building the graph adjacency structure.
Calling ParMETIS... graph partitioning complete (831 edge cuts).
Distributing ParMETIS coloring.
Rebalancing vertices.
Rebalancing volume element connectivity.
Rebalancing markers and surface elements.
14875 vertices including ghost points. 
23674 interior elements including halo cells. 
18780 triangles.
4894 quadrilaterals.
Establishing MPI communication patterns.
Identify vertices.
Storing a mapping from global to local point index.

------------------------- Solution Postprocessing -----------------------
Reading and storing the solution from restart_flow.
Volume output fields: COORDINATES, SOLUTION
  Info: Ignoring the following screen output fields:
  RMS_DENSITY, RMS_NU_TILDE, LIFT, DRAG
Screen output fields: INNER_ITER
  Info: Ignoring the following history output groups:
  RMS_RES, AERO_COEFF
History output group(s): ITER
Warning: No (valid) fields chosen for convergence monitoring. Convergence monitoring inactive.
Warning: No (valid) fields chosen for time convergence monitoring. Time convergence monitoring inactive.
|Paraview                           |flow.vtu                           |
|Paraview surface                   |surface_flow.vtu                   |
|CSV file                           |surface_flow.csv                   |

------------------------- Finalize Solver -------------------------
Deleted CGeometry container.
Deleted CSolver class.
Deleted CConfig container.
Deleted COutput class.

Completed in 0.016087 seconds on 6 cores.

------------------------- Exit Success (SU2_SOL) ------------------------

