
-------------------------------------------------------------------------
|    ___ _   _ ___                                                      |
|   / __| | | |_  )   Release 8.0.0 "Harrier"                           |
|   \__ \ |_| |/ /                                                      |
|   |___/\___//___|   Suite (Computational Fluid Dynamics Code)         |
|                                                                       |
-------------------------------------------------------------------------
| SU2 Project Website: https://su2code.github.io                        |
|                                                                       |
| The SU2 Project is maintained by the SU2 Foundation                   |
| (http://su2foundation.org)                                            |
-------------------------------------------------------------------------
| Copyright 2012-2023, SU2 Contributors                                 |
|                                                                       |
| SU2 is free software; you can redistribute it and/or                  |
| modify it under the terms of the GNU Lesser General Public            |
| License as published by the Free Software Foundation; either          |
| version 2.1 of the License, or (at your option) any later version.    |
|                                                                       |
| SU2 is distributed in the hope that it will be useful,                |
| but WITHOUT ANY WARRANTY; without even the implied warranty of        |
| MERCHANTABILITY or FITNESS FOR A PARTICULAR PURPOSE. See the GNU      |
| Lesser General Public License for more details.                       |
|                                                                       |
| You should have received a copy of the GNU Lesser General Public      |
| License along with SU2. If not, see <http://www.gnu.org/licenses/>.   |
-------------------------------------------------------------------------

Parsing config file for zone 0

----------------- Physical Case Definition ( Zone 0 ) -------------------
Compressible RANS equations.
Turbulence model: Spalart-Allmaras-noft2
Hybrid RANS/LES: No Hybrid RANS/LES
Mach number: 0.734.
Angle of attack (AoA): 2.31 deg, and angle of sideslip (AoS): 0 deg.
Reynolds number: 6.5e+06. Reference length 1.
Fixed CL mode, target value: 0.824.
Reading and writing binary SU2 native restart files.
Read flow solution from: solution_flow.dat.
Dimensional simulation.
The reference area is 1 m^2.
The semi-span will be computed using the max y(3D) value.
The reference length is 1 m.
Reference origin for moment evaluation is (0.25, 0, 0).
Surface(s) where the force coefficients are evaluated: AIRFOIL.

Surface(s) plotted in the output file: AIRFOIL.
Surface(s) affected by the design variables: AIRFOIL.
Input mesh file name: mesh_RAE2822_turb_deform.su2

--------------- Space Numerical Integration ( Zone 0 ) ------------------
Jameson-Schmidt-Turkel scheme (2nd order in space) for the flow inviscid terms.
JST viscous coefficients (2nd & 4th): 0.5, 0.02.
The method includes a grid stretching correction (p = 0.3).
Scalar upwind solver for the turbulence model.
First order integration in space.
Average of gradients with correction (viscous flow terms).
Average of gradients with correction (viscous turbulence terms).
Gradient for viscous and source terms: inverse-distance weighted Least-Squares.

--------------- Time Numerical Integration  ( Zone 0 ) ------------------
Local time stepping (steady state simulation).
Euler implicit method for the flow equations.
FGMRES is used for solving the linear system.
Using a ILU(0) preconditioning.
Convergence criteria of the linear solver: 1e-06.
Max number of linear iterations: 10.
No CFL adaptation.
Courant-Friedrichs-Lewy number:       10
Euler implicit time integration for the turbulence model.

------------------ Convergence Criteria  ( Zone 0 ) ---------------------
Maximum number of solver subiterations: 5500.
Begin convergence monitoring at iteration 10.
Residual minimum value: 1e-12.
Cauchy series min. value: 1e-06.
Number of Cauchy elements: 100.
Begin windowed time average at iteration 0.

-------------------- Output Information ( Zone 0 ) ----------------------
File writing frequency: 
+------------------------------------+
|                     File| Frequency|
+------------------------------------+
|                  RESTART|     10000|
|                 PARAVIEW|     10000|
|         SURFACE_PARAVIEW|     10000|
|              SURFACE_CSV|     10000|
+------------------------------------+
Writing the convergence history file every 1 inner iterations.
Writing the screen convergence history every 1 inner iterations.
The tabular file format is CSV (.csv).
Convergence history file name: history_direct.
Forces breakdown file name: forces_breakdown.dat.
Surface file name: surface_flow.
Volume file name: flow.
Restart file name: restart_flow.dat.

------------- Config File Boundary Information ( Zone 0 ) ---------------
+-----------------------------------------------------------------------+
|                        Marker Type|                        Marker Name|
+-----------------------------------------------------------------------+
|                          Far-field|                           FARFIELD|
+-----------------------------------------------------------------------+
|                     Heat flux wall|                            AIRFOIL|
+-----------------------------------------------------------------------+

-------------------- Output Preprocessing ( Zone 0 ) --------------------

WARNING: SURFACE_PRESSURE_DROP can only be computed for at least 2 surfaces (outlet, inlet, ...)

Screen output fields: INNER_ITER, RMS_DENSITY, RMS_NU_TILDE, LIFT, DRAG
History output group(s): ITER, RMS_RES, AERO_COEFF
Convergence field(s): RMS_DENSITY
Warning: No (valid) fields chosen for time convergence monitoring. Time convergence monitoring inactive.
Volume output fields: COORDINATES, SOLUTION, PRIMITIVE

------------------- Geometry Preprocessing ( Zone 0 ) -------------------
Two dimensional problem.
13937 grid points before partitioning.
22842 volume elements before partitioning.
2 surface markers.
192 boundary elements in index 0 (Marker = AIRFOIL).
40 boundary elements in index 1 (Marker = FARFIELD).
Executing the partitioning functions.
Building the graph adjacency structure.
Calling ParMETIS... graph partitioning complete (831 edge cuts).
Distributing ParMETIS coloring.
Rebalancing vertices.
Rebalancing volume element connectivity.
Rebalancing markers and surface elements.
14875 vertices including ghost points. 
23674 interior elements including halo cells. 
18780 triangles.
4894 quadrilaterals.
Establishing MPI communication patterns.
Setting point connectivity.
Renumbering points (Reverse Cuthill McKee Ordering).
Recomputing point connectivity.
Setting element connectivity.
Checking the numerical grid orientation.
All volume elements are correctly orientend.
All surface elements are correctly orientend.
Identifying edges and vertices.
Setting the control volume structure.
Area of the computational grid: 32209.9.
Searching for the closest normal neighbors to the surfaces.
Storing a mapping from global to local point index.
Compute the surface curvature.
Max K: 208.19. Mean K: 8.37926. Standard deviation K: 27.3163.
Checking for periodicity.
Computing mesh quality statistics for the dual control volumes.
+--------------------------------------------------------------+
|           Mesh Quality Metric|        Minimum|        Maximum|
+--------------------------------------------------------------+
|    Orthogonality Angle (deg.)|         74.446|        89.9998|
|     CV Face Area Aspect Ratio|        1.00104|        3359.05|
|           CV Sub-Volume Ratio|        1.00066|        1219.91|
+--------------------------------------------------------------+
Finding max control volume width.
Communicating number of neighbors.
Wetted area = 2.02132 m.
Area projection in the x-plane = 0.128058 m, y-plane = 0.995873 m.
Max. coordinate in the x-direction = 1 m, y-direction = 0.0615155 m.
Min. coordinate in the x-direction = 0 m, y-direction = -0.0626575 m.
Computing wall distances.

-------------------- Solver Preprocessing ( Zone 0 ) --------------------
WARNING: AoA in the solution file (2.76563 deg.) +
         AoA offset in mesh file (0 deg.) = 2.76563 deg.
WARNING: SU2 will use the dCD/dCL provided in the direct solution file: 0.0205794.
WARNING: SU2 will use the dCMz/dCL provided in the direct solution file: 0.0153503.
Viscous flow: Computing pressure using the ideal gas law
based on the free-stream temperature and a density computed
from the Reynolds number.
Force coefficients computed using free-stream values.

-- Models:
+------------------------------------------------------------------------------+
|          Viscosity Model|        Conductivity Model|              Fluid Model|
+------------------------------------------------------------------------------+
|               SUTHERLAND|          CONSTANT_PRANDTL|             STANDARD_AIR|
+------------------------------------------------------------------------------+
-- Fluid properties:
+------------------------------------------------------------------------------+
|                  Name|    Dim. value|    Ref. value|      Unit|Non-dim. value|
+------------------------------------------------------------------------------+
|        Ref. Viscosity|     1.716e-05|             1|   N.s/m^2|     1.716e-05|
|      Sutherland Temp.|        273.15|             1|         K|        273.15|
|     Sutherland Const.|         110.4|             1|         K|         110.4|
+------------------------------------------------------------------------------+
|        Prandtl (Lam.)|             -|             -|         -|          0.71|
|       Prandtl (Turb.)|             -|             -|         -|           0.9|
+------------------------------------------------------------------------------+
|          Gas Constant|       287.058|             1|  N.m/kg.K|       287.058|
|      Spec. Heat Ratio|             -|             -|         -|           1.4|
+------------------------------------------------------------------------------+
-- Initial and free-stream conditions:
+------------------------------------------------------------------------------+
|                  Name|    Dim. value|    Ref. value|      Unit|Non-dim. value|
+------------------------------------------------------------------------------+
|       Static Pressure|         38515|             1|        Pa|         38515|
|               Density|      0.465631|             1|    kg/m^3|      0.465631|
|           Temperature|        288.15|             1|         K|        288.15|
|          Total Energy|        237984|             1|   m^2/s^2|        237984|
|            Velocity-X|       249.487|             1|       m/s|       249.487|
|            Velocity-Y|       12.0519|             1|       m/s|       12.0519|
|    Velocity Magnitude|       249.778|             1|       m/s|       249.778|
+------------------------------------------------------------------------------+
|             Viscosity|    1.7893e-05|             1|   N.s/m^2|    1.7893e-05|
|          Conductivity|             -|             1|   W/m^2.K|             -|
|     Turb. Kin. Energy|       233.959|             1|   m^2/s^2|       233.959|
|     Spec. Dissipation|        608834|             1|       1/s|        608834|
+------------------------------------------------------------------------------+
|           Mach Number|             -|             -|         -|         0.734|
|       Reynolds Number|             -|             -|         -|       6.5e+06|
+------------------------------------------------------------------------------+
Initialize Jacobian structure (Navier-Stokes). MG level: 0.
Initialize Jacobian structure (SA model).

------------------- Numerics Preprocessing ( Zone 0 ) -------------------

----------------- Integration Preprocessing ( Zone 0 ) ------------------

------------------- Iteration Preprocessing ( Zone 0 ) ------------------
Euler/Navier-Stokes/RANS fluid iteration.

------------------------------ Begin Solver -----------------------------

Simulation Run using the Single-zone Driver
WARNING: SU2 was not compiled for an AVX-capable architecture. Performance could be better,
         see https://su2code.github.io/docs_v7/Build-SU2-Linux-MacOS/#compiler-optimizations
+----------------------------------------------------------------+
|  Inner_Iter|    rms[Rho]|     rms[nu]|          CL|          CD|
+----------------------------------------------------------------+
|           0|   -5.824319|   -7.234888|    0.824013|    0.011990|
|           1|   -5.879855|   -7.332567|    0.824019|    0.011992|
|           2|   -5.938205|   -7.458704|    0.824021|    0.011993|
|           3|   -5.982711|   -7.611369|    0.824019|    0.011994|
|           4|   -6.013782|   -7.771809|    0.824017|    0.011994|
|           5|   -6.032803|   -7.884339|    0.824015|    0.011994|
|           6|   -6.041494|   -7.907014|    0.824014|    0.011994|
|           7|   -6.042687|   -7.882593|    0.824014|    0.011994|
|           8|   -6.039168|   -7.850918|    0.824015|    0.011994|
|           9|   -6.032763|   -7.817890|    0.824016|    0.011995|
|          10|   -6.024410|   -7.782035|    0.824017|    0.011995|
|          11|   -6.014687|   -7.746721|    0.824019|    0.011996|
|          12|   -6.004161|   -7.718470|    0.824020|    0.011997|
|          13|   -5.993414|   -7.702665|    0.824022|    0.011998|
|          14|   -5.982936|   -7.702028|    0.824024|    0.011999|
|          15|   -5.973068|   -7.716800|    0.824025|    0.012000|
|          16|   -5.964041|   -7.744717|    0.824026|    0.012001|
|          17|   -5.956053|   -7.780064|    0.824026|    0.012002|
|          18|   -5.949312|   -7.812491|    0.824026|    0.012003|
|          19|   -5.944016|   -7.829087|    0.824026|    0.012004|
|          20|   -5.940298|   -7.822868|    0.824025|    0.012005|
|          21|   -5.938167|   -7.799187|    0.824024|    0.012006|
|          22|   -5.937484|   -7.769831|    0.824022|    0.012006|
|          23|   -5.937983|   -7.744252|    0.824020|    0.012007|
|          24|   -5.939328|   -7.727203|    0.824018|    0.012007|
|          25|   -5.941183|   -7.720025|    0.824015|    0.012008|
|          26|   -5.943269|   -7.722059|    0.824013|    0.012008|
|          27|   -5.945390|   -7.731395|    0.824010|    0.012008|
|          28|   -5.947418|   -7.745219|    0.824008|    0.012008|
|          29|   -5.949262|   -7.760133|    0.824005|    0.012008|
|          30|   -5.950823|   -7.772774|    0.824003|    0.012008|
|          31|   -5.951965|   -7.780736|    0.824000|    0.012007|
|          32|   -5.952516|   -7.783357|    0.823998|    0.012007|
|          33|   -5.952292|   -7.781769|    0.823996|    0.012007|
|          34|   -5.951145|   -7.778172|    0.823994|    0.012006|
|          35|   -5.949003|   -7.774908|    0.823992|    0.012006|
|          36|   -5.945894|   -7.773858|    0.823991|    0.012005|
|          37|   -5.941940|   -7.776251|    0.823989|    0.012005|
|          38|   -5.937332|   -7.782708|    0.823987|    0.012004|
|          39|   -5.932285|   -7.793361|    0.823986|    0.012004|
|          40|   -5.927011|   -7.807934|    0.823984|    0.012003|
|          41|   -5.921682|   -7.825790|    0.823983|    0.012002|
|          42|   -5.916426|   -7.845909|    0.823981|    0.012002|
|          43|   -5.911323|   -7.866874|    0.823979|    0.012001|
|          44|   -5.906405|   -7.886885|    0.823978|    0.012001|
|          45|   -5.901664|   -7.903921|    0.823977|    0.012000|
|          46|   -5.897057|   -7.916098|    0.823975|    0.012000|
|          47|   -5.892512|   -7.922168|    0.823974|    0.011999|
|          48|   -5.887941|   -7.921934|    0.823973|    0.011999|
|          49|   -5.883245|   -7.916310|    0.823972|    0.011998|
|          50|   -5.878331|   -7.906967|    0.823971|    0.011998|
|          51|   -5.873128|   -7.895819|    0.823970|    0.011997|
|          52|   -5.867591|   -7.884597|    0.823970|    0.011997|
|          53|   -5.861715|   -7.874631|    0.823969|    0.011996|
|          54|   -5.855531|   -7.866817|    0.823969|    0.011996|
|          55|   -5.849102|   -7.861659|    0.823969|    0.011995|
|          56|   -5.842516|   -7.859353|    0.823969|    0.011995|
|          57|   -5.835868|   -7.859865|    0.823970|    0.011995|
|          58|   -5.829252|   -7.862985|    0.823971|    0.011994|
|          59|   -5.822750|   -7.868390|    0.823971|    0.011994|
|          60|   -5.816424|   -7.875674|    0.823972|    0.011993|
|          61|   -5.810316|   -7.884391|    0.823973|    0.011993|
|          62|   -5.804445|   -7.894080|    0.823975|    0.011993|
|          63|   -5.798813|   -7.904293|    0.823976|    0.011992|
|          64|   -5.793411|   -7.914611|    0.823977|    0.011992|
|          65|   -5.788225|   -7.924658|    0.823978|    0.011992|
|          66|   -5.783238|   -7.934112|    0.823980|    0.011991|
|          67|   -5.778443|   -7.942714|    0.823981|    0.011991|
|          68|   -5.773835|   -7.950274|    0.823983|    0.011991|
|          69|   -5.769420|   -7.956682|    0.823984|    0.011991|
|          70|   -5.765212|   -7.961910|    0.823985|    0.011990|
|          71|   -5.761228|   -7.966009|    0.823986|    0.011990|
|          72|   -5.757487|   -7.969094|    0.823987|    0.011990|
|          73|   -5.754006|   -7.971318|    0.823988|    0.011990|
|          74|   -5.750796|   -7.972842|    0.823989|    0.011990|
|          75|   -5.747863|   -7.973808|    0.823990|    0.011990|
|          76|   -5.745201|   -7.974311|    0.823990|    0.011989|
|          77|   -5.742799|   -7.974391|    0.823991|    0.011989|
|          78|   -5.740637|   -7.974043|    0.823991|    0.011989|
|          79|   -5.738687|   -7.973226|    0.823992|    0.011989|
|          80|   -5.736921|   -7.971896|    0.823992|    0.011989|
|          81|   -5.735309|   -7.970034|    0.823992|    0.011989|
|          82|   -5.733820|   -7.967665|    0.823993|    0.011989|
|          83|   -5.732431|   -7.964872|    0.823993|    0.011989|
|          84|   -5.731124|   -7.961799|    0.823993|    0.011989|
|          85|   -5.729889|   -7.958629|    0.823993|    0.011988|
|          86|   -5.728723|   -7.955575|    0.823993|    0.011988|
|          87|   -5.727634|   -7.952844|    0.823993|    0.011988|
|          88|   -5.726637|   -7.950625|    0.823993|    0.011988|
|          89|   -5.725757|   -7.949071|    0.823994|    0.011988|
|          90|   -5.725023|   -7.948291|    0.823994|    0.011988|
|          91|   -5.724470|   -7.948343|    0.823994|    0.011988|
|          92|   -5.724134|   -7.949243|    0.823994|    0.011988|
|          93|   -5.724055|   -7.950968|    0.823994|    0.011989|
|          94|   -5.724269|   -7.953466|    0.823994|    0.011989|
|          95|   -5.724811|   -7.956660|    0.823995|    0.011989|
|          96|   -5.725709|   -7.960464|    0.823995|    0.011989|
|          97|   -5.726987|   -7.964785|    0.823995|    0.011989|
|          98|   -5.728658|   -7.969531|    0.823995|    0.011989|
|          99|   -5.730726|   -7.974619|    0.823996|    0.011989|
|         100|   -5.733184|   -7.979972|    0.823996|    0.011989|
|         101|   -5.736011|   -7.985525|    0.823997|    0.011990|
+-----------------------------------------------------------------------+
|Fixed CL Mode                           |Value                         |
+-----------------------------------------------------------------------+
|Current CL                              |0.823997                      |
|Target CL                               |0.824                         |
|Previous AOA                            |2.76563                       |
|Changed AoA by                          |1.89383e-05                   |
+-----------------------------------------------------------------------+
+----------------------------------------------------------------+
|  Inner_Iter|    rms[Rho]|     rms[nu]|          CL|          CD|
+----------------------------------------------------------------+
|         102|   -4.912213|   -7.989573|    0.823997|    0.011990|
|         103|   -5.286177|   -7.996295|    0.823997|    0.011990|
|         104|   -5.507560|   -8.002383|    0.823998|    0.011991|
|         105|   -5.565396|   -8.008384|    0.823998|    0.011991|
|         106|   -5.592199|   -8.014384|    0.823999|    0.011991|
|         107|   -5.622000|   -8.020401|    0.823999|    0.011991|
|         108|   -5.652933|   -8.026441|    0.824000|    0.011992|
|         109|   -5.677775|   -8.032508|    0.824000|    0.011992|
|         110|   -5.693781|   -8.038605|    0.824001|    0.011992|
|         111|   -5.703404|   -8.044735|    0.824001|    0.011992|
|         112|   -5.709832|   -8.050899|    0.824001|    0.011993|
|         113|   -5.714662|   -8.057092|    0.824002|    0.011993|
|         114|   -5.718457|   -8.063305|    0.824002|    0.011993|
|         115|   -5.721664|   -8.069517|    0.824002|    0.011994|
|         116|   -5.724787|   -8.075699|    0.824002|    0.011994|
|         117|   -5.728110|   -8.081817|    0.824002|    0.011994|
|         118|   -5.731525|   -8.087835|    0.824003|    0.011994|
|         119|   -5.734647|   -8.093720|    0.824003|    0.011995|
|         120|   -5.737111|   -8.099444|    0.824003|    0.011995|
|         121|   -5.738800|   -8.104995|    0.824003|    0.011995|
|         122|   -5.739866|   -8.110369|    0.824002|    0.011995|
|         123|   -5.740582|   -8.115578|    0.824002|    0.011995|
|         124|   -5.741158|   -8.120647|    0.824002|    0.011995|
|         125|   -5.741654|   -8.125614|    0.824002|    0.011996|
|         126|   -5.741998|   -8.130527|    0.824002|    0.011996|
|         127|   -5.742063|   -8.135444|    0.824002|    0.011996|
|         128|   -5.741739|   -8.140424|    0.824002|    0.011996|
|         129|   -5.740976|   -8.145523|    0.824001|    0.011996|
|         130|   -5.739787|   -8.150792|    0.824001|    0.011996|
|         131|   -5.738235|   -8.156269|    0.824001|    0.011996|
|         132|   -5.736420|   -8.161980|    0.824001|    0.011997|
|         133|   -5.734452|   -8.167929|    0.824001|    0.011997|
|         134|   -5.732432|   -8.174104|    0.824001|    0.011997|
|         135|   -5.730431|   -8.180469|    0.824001|    0.011997|
|         136|   -5.728483|   -8.186969|    0.824001|    0.011997|
|         137|   -5.726579|   -8.193530|    0.824001|    0.011997|
|         138|   -5.724678|   -8.200062|    0.824001|    0.011997|
|         139|   -5.722721|   -8.206465|    0.824001|    0.011997|
|         140|   -5.720643|   -8.212635|    0.824001|    0.011997|
|         141|   -5.718389|   -8.218468|    0.824001|    0.011997|
|         142|   -5.715922|   -8.223867|    0.824001|    0.011998|
|         143|   -5.713232|   -8.228752|    0.824001|    0.011998|
|         144|   -5.710336|   -8.233063|    0.824001|    0.011998|
|         145|   -5.707271|   -8.236767|    0.824001|    0.011998|
|         146|   -5.704089|   -8.239858|    0.824001|    0.011998|
|         147|   -5.700846|   -8.242359|    0.824001|    0.011998|
|         148|   -5.697591|   -8.244317|    0.824001|    0.011998|
|         149|   -5.694367|   -8.245805|    0.824001|    0.011998|
|         150|   -5.691202|   -8.246908|    0.824001|    0.011998|
|         151|   -5.688111|   -8.247719|    0.824001|    0.011998|
|         152|   -5.685104|   -8.248335|    0.824001|    0.011998|
|         153|   -5.682185|   -8.248847|    0.824001|    0.011998|
|         154|   -5.679354|   -8.249334|    0.824001|    0.011998|
|         155|   -5.676616|   -8.249861|    0.824001|    0.011998|
|         156|   -5.673979|   -8.250475|    0.824001|    0.011998|
|         157|   -5.671451|   -8.251202|    0.824001|    0.011998|
|         158|   -5.669045|   -8.252052|    0.824001|    0.011998|
|         159|   -5.666775|   -8.253013|    0.824000|    0.011998|
|         160|   -5.664654|   -8.254060|    0.824000|    0.011998|
|         161|   -5.662694|   -8.255153|    0.824000|    0.011998|
|         162|   -5.660906|   -8.256247|    0.824000|    0.011998|
|         163|   -5.659298|   -8.257295|    0.824000|    0.011998|
|         164|   -5.657875|   -8.258252|    0.824000|    0.011998|
|         165|   -5.656640|   -8.259081|    0.824000|    0.011998|
|         166|   -5.655592|   -8.259758|    0.824000|    0.011998|
|         167|   -5.654730|   -8.260276|    0.824000|    0.011998|
|         168|   -5.654047|   -8.260644|    0.823999|    0.011998|
|         169|   -5.653536|   -8.260890|    0.823999|    0.011998|
|         170|   -5.653187|   -8.261055|    0.823999|    0.011998|
|         171|   -5.652988|   -8.261196|    0.823999|    0.011998|
|         172|   -5.652923|   -8.261375|    0.823999|    0.011998|
|         173|   -5.652979|   -8.261660|    0.823999|    0.011998|
|         174|   -5.653138|   -8.262120|    0.823999|    0.011997|
|         175|   -5.653386|   -8.262819|    0.824000|    0.011997|
|         176|   -5.653707|   -8.263814|    0.824000|    0.011997|
|         177|   -5.654088|   -8.265149|    0.824000|    0.011997|
|         178|   -5.654521|   -8.266857|    0.824000|    0.011997|
|         179|   -5.655000|   -8.268956|    0.824000|    0.011997|
|         180|   -5.655525|   -8.271446|    0.824000|    0.011997|
|         181|   -5.656101|   -8.274315|    0.824000|    0.011997|
|         182|   -5.656738|   -8.277532|    0.824000|    0.011997|
|         183|   -5.657453|   -8.281056|    0.824001|    0.011997|
|         184|   -5.658267|   -8.284833|    0.824001|    0.011996|
|         185|   -5.659206|   -8.288800|    0.824001|    0.011996|
|         186|   -5.660299|   -8.292889|    0.824001|    0.011996|
|         187|   -5.661577|   -8.297027|    0.824001|    0.011996|
|         188|   -5.663072|   -8.301145|    0.824001|    0.011996|
|         189|   -5.664814|   -8.305177|    0.824002|    0.011996|
|         190|   -5.666832|   -8.309069|    0.824002|    0.011996|
|         191|   -5.669149|   -8.312774|    0.824002|    0.011996|
|         192|   -5.671781|   -8.316263|    0.824002|    0.011996|
|         193|   -5.674740|   -8.319521|    0.824002|    0.011995|
|         194|   -5.678024|   -8.322551|    0.824002|    0.011995|
|         195|   -5.681626|   -8.325371|    0.824002|    0.011995|
|         196|   -5.685523|   -8.328015|    0.824002|    0.011995|
|         197|   -5.689684|   -8.330528|    0.824003|    0.011995|
|         198|   -5.694063|   -8.332965|    0.824003|    0.011995|
|         199|   -5.698604|   -8.335388|    0.824003|    0.011995|
|         200|   -5.703240|   -8.337861|    0.824003|    0.011995|
|         201|   -5.707895|   -8.340449|    0.824003|    0.011994|
+-----------------------------------------------------------------------+
|Fixed CL Mode                           |Value                         |
+-----------------------------------------------------------------------+
|Current CL                              |0.824003                      |
|Target CL                               |0.824                         |
|Previous AOA                            |2.76565                       |
|Changed AoA by                          |-1.46307e-05                  |
+-----------------------------------------------------------------------+
+----------------------------------------------------------------+
|  Inner_Iter|    rms[Rho]|     rms[nu]|          CL|          CD|
+----------------------------------------------------------------+
|         202|   -5.019700|   -8.336758|    0.824003|    0.011994|
|         203|   -5.366404|   -8.342362|    0.824003|    0.011994|
|         204|   -5.533281|   -8.346267|    0.824003|    0.011994|
|         205|   -5.572520|   -8.350233|    0.824003|    0.011994|
|         206|   -5.598459|   -8.354531|    0.824003|    0.011994|
|         207|   -5.629895|   -8.359210|    0.824004|    0.011994|
|         208|   -5.662344|   -8.364258|    0.824004|    0.011994|
|         209|   -5.688786|   -8.369634|    0.824004|    0.011994|
|         210|   -5.706227|   -8.375286|    0.824004|    0.011993|
|         211|   -5.716205|   -8.381144|    0.824004|    0.011993|
|         212|   -5.721468|   -8.387132|    0.824004|    0.011993|
|         213|   -5.723909|   -8.393176|    0.824004|    0.011993|
|         214|   -5.724670|   -8.399202|    0.824004|    0.011993|
|         215|   -5.724668|   -8.405136|    0.824004|    0.011993|
|         216|   -5.724702|   -8.410894|    0.824004|    0.011993|
|         217|   -5.725281|   -8.416386|    0.824004|    0.011993|
|         218|   -5.726540|   -8.421522|    0.824005|    0.011993|
|         219|   -5.728345|   -8.426220|    0.824005|    0.011993|
|         220|   -5.730501|   -8.430409|    0.824005|    0.011993|
|         221|   -5.732917|   -8.434033|    0.824005|    0.011993|
|         222|   -5.735659|   -8.437055|    0.824005|    0.011993|
|         223|   -5.738888|   -8.439463|    0.824005|    0.011993|
|         224|   -5.742768|   -8.441267|    0.824005|    0.011993|
|         225|   -5.747411|   -8.442505|    0.824005|    0.011993|
|         226|   -5.752866|   -8.443240|    0.824005|    0.011993|
|         227|   -5.759144|   -8.443553|    0.824006|    0.011993|
|         228|   -5.766239|   -8.443541|    0.824006|    0.011993|
|         229|   -5.774144|   -8.443311|    0.824006|    0.011993|
|         230|   -5.782852|   -8.442973|    0.824006|    0.011994|
|         231|   -5.792351|   -8.442634|    0.824006|    0.011994|
|         232|   -5.802633|   -8.442400|    0.824006|    0.011994|
|         233|   -5.813687|   -8.442366|    0.824006|    0.011994|
|         234|   -5.825500|   -8.442616|    0.824007|    0.011994|
|         235|   -5.838050|   -8.443221|    0.824007|    0.011994|
|         236|   -5.851299|   -8.444240|    0.824007|    0.011994|
|         237|   -5.865179|   -8.445715|    0.824007|    0.011994|
|         238|   -5.879592|   -8.447670|    0.824007|    0.011994|
|         239|   -5.894404|   -8.450118|    0.824007|    0.011994|
|         240|   -5.909442|   -8.453050|    0.824007|    0.011994|
|         241|   -5.924505|   -8.456447|    0.824008|    0.011995|
|         242|   -5.939370|   -8.460269|    0.824008|    0.011995|
|         243|   -5.953810|   -8.464467|    0.824008|    0.011995|
|         244|   -5.967609|   -8.468976|    0.824008|    0.011995|
|         245|   -5.980578|   -8.473718|    0.824008|    0.011995|
|         246|   -5.992570|   -8.478609|    0.824009|    0.011995|
|         247|   -6.003475|   -8.483554|    0.824009|    0.011995|
|         248|   -6.013227|   -8.488458|    0.824009|    0.011995|
|         249|   -6.021789|   -8.493224|    0.824009|    0.011995|
|         250|   -6.029150|   -8.497760|    0.824009|    0.011995|
|         251|   -6.035324|   -8.501985|    0.824009|    0.011996|
|         252|   -6.040343|   -8.505831|    0.824009|    0.011996|
|         253|   -6.044261|   -8.509251|    0.824009|    0.011996|
|         254|   -6.047158|   -8.512215|    0.824010|    0.011996|
|         255|   -6.049134|   -8.514726|    0.824010|    0.011996|
|         256|   -6.050310|   -8.516800|    0.824010|    0.011996|
|         257|   -6.050819|   -8.518477|    0.824010|    0.011996|
|         258|   -6.050801|   -8.519814|    0.824010|    0.011996|
|         259|   -6.050390|   -8.520884|    0.824010|    0.011996|
|         260|   -6.049716|   -8.521769|    0.824010|    0.011996|
|         261|   -6.048892|   -8.522552|    0.824010|    0.011996|
|         262|   -6.048016|   -8.523315|    0.824010|    0.011996|
|         263|   -6.047171|   -8.524131|    0.824009|    0.011997|
|         264|   -6.046423|   -8.525061|    0.824009|    0.011997|
|         265|   -6.045830|   -8.526150|    0.824009|    0.011997|
|         266|   -6.045435|   -8.527424|    0.824009|    0.011997|
|         267|   -6.045274|   -8.528887|    0.824009|    0.011997|
|         268|   -6.045378|   -8.530521|    0.824009|    0.011997|
|         269|   -6.045769|   -8.532287|    0.824008|    0.011997|
|         270|   -6.046468|   -8.534121|    0.824008|    0.011997|
|         271|   -6.047488|   -8.535943|    0.824008|    0.011997|
|         272|   -6.048841|   -8.537653|    0.824008|    0.011997|
|         273|   -6.050534|   -8.539142|    0.824008|    0.011997|
|         274|   -6.052570|   -8.540296|    0.824007|    0.011997|
|         275|   -6.054952|   -8.541002|    0.824007|    0.011997|
|         276|   -6.057678|   -8.541158|    0.824007|    0.011997|
|         277|   -6.060744|   -8.540684|    0.824007|    0.011997|
|         278|   -6.064146|   -8.539523|    0.824006|    0.011997|
|         279|   -6.067874|   -8.537650|    0.824006|    0.011997|
|         280|   -6.071920|   -8.535077|    0.824006|    0.011997|
|         281|   -6.076272|   -8.531850|    0.824006|    0.011997|
|         282|   -6.080914|   -8.528047|    0.824005|    0.011997|
|         283|   -6.085832|   -8.523775|    0.824005|    0.011997|
|         284|   -6.091005|   -8.519158|    0.824005|    0.011997|
|         285|   -6.096413|   -8.514335|    0.824005|    0.011996|
|         286|   -6.102032|   -8.509450|    0.824005|    0.011996|
|         287|   -6.107834|   -8.504644|    0.824005|    0.011996|
|         288|   -6.113792|   -8.500052|    0.824004|    0.011996|
|         289|   -6.119876|   -8.495795|    0.824004|    0.011996|
|         290|   -6.126053|   -8.491981|    0.824004|    0.011996|
|         291|   -6.132290|   -8.488703|    0.824004|    0.011996|
|         292|   -6.138555|   -8.486035|    0.824004|    0.011996|
|         293|   -6.144815|   -8.484036|    0.824004|    0.011996|
|         294|   -6.151038|   -8.482749|    0.824004|    0.011996|
|         295|   -6.157192|   -8.482200|    0.824004|    0.011996|
|         296|   -6.163251|   -8.482402|    0.824004|    0.011996|
|         297|   -6.169188|   -8.483357|    0.824004|    0.011996|
|         298|   -6.174982|   -8.485050|    0.824004|    0.011996|
|         299|   -6.180613|   -8.487458|    0.824004|    0.011996|
|         300|   -6.186067|   -8.490548|    0.824004|    0.011996|
|         301|   -6.191331|   -8.494278|    0.824004|    0.011995|
+-----------------------------------------------------------------------+
|Fixed CL Mode                           |Value                         |
+-----------------------------------------------------------------------+
|Current CL                              |0.824004                      |
|Target CL                               |0.824                         |
|Previous AOA                            |2.76563                       |
|Changed AoA by                          |-2.11344e-05                  |
+-----------------------------------------------------------------------+
+----------------------------------------------------------------+
|  Inner_Iter|    rms[Rho]|     rms[nu]|          CL|          CD|
+----------------------------------------------------------------+
|         302|   -4.867763|   -8.473943|    0.824004|    0.011995|
|         303|   -5.248730|   -8.490321|    0.824004|    0.011995|
|         304|   -5.484029|   -8.499098|    0.824005|    0.011995|
|         305|   -5.558150|   -8.506697|    0.824005|    0.011995|
|         306|   -5.608868|   -8.514074|    0.824005|    0.011995|
|         307|   -5.673863|   -8.521409|    0.824005|    0.011995|
|         308|   -5.752171|   -8.528726|    0.824005|    0.011995|
|         309|   -5.831052|   -8.536023|    0.824005|    0.011995|
|         310|   -5.896340|   -8.543280|    0.824005|    0.011995|
|         311|   -5.942704|   -8.550458|    0.824005|    0.011995|
|         312|   -5.972975|   -8.557521|    0.824005|    0.011994|
|         313|   -5.990924|   -8.564456|    0.824006|    0.011994|
|         314|   -5.999725|   -8.571279|    0.824006|    0.011994|
|         315|   -6.003661|   -8.577994|    0.824006|    0.011994|
|         316|   -6.007492|   -8.584592|    0.824006|    0.011994|
|         317|   -6.014440|   -8.591060|    0.824006|    0.011994|
|         318|   -6.025228|   -8.597394|    0.824006|    0.011994|
|         319|   -6.038536|   -8.603613|    0.824006|    0.011994|
|         320|   -6.052232|   -8.609747|    0.824007|    0.011994|
|         321|   -6.064690|   -8.615829|    0.824007|    0.011994|
|         322|   -6.075501|   -8.621888|    0.824007|    0.011994|
|         323|   -6.085225|   -8.627945|    0.824007|    0.011994|
|         324|   -6.094627|   -8.634014|    0.824007|    0.011994|
|         325|   -6.104066|   -8.640109|    0.824007|    0.011994|
|         326|   -6.113381|   -8.646246|    0.824008|    0.011994|
|         327|   -6.122108|   -8.652445|    0.824008|    0.011994|
|         328|   -6.129759|   -8.658728|    0.824008|    0.011994|
|         329|   -6.136001|   -8.665116|    0.824008|    0.011994|
|         330|   -6.140703|   -8.671624|    0.824008|    0.011994|
|         331|   -6.143929|   -8.678265|    0.824008|    0.011994|
|         332|   -6.145924|   -8.685043|    0.824009|    0.011994|
|         333|   -6.147070|   -8.691954|    0.824009|    0.011994|
|         334|   -6.147818|   -8.698978|    0.824009|    0.011994|
|         335|   -6.148590|   -8.706087|    0.824009|    0.011994|
|         336|   -6.149698|   -8.713241|    0.824009|    0.011994|
|         337|   -6.151293|   -8.720390|    0.824009|    0.011994|
|         338|   -6.153365|   -8.727474|    0.824010|    0.011994|
|         339|   -6.155762|   -8.734431|    0.824010|    0.011994|
|         340|   -6.158245|   -8.741198|    0.824010|    0.011994|
|         341|   -6.160544|   -8.747706|    0.824010|    0.011994|
|         342|   -6.162422|   -8.753895|    0.824010|    0.011994|
|         343|   -6.163742|   -8.759707|    0.824010|    0.011994|
|         344|   -6.164497|   -8.765092|    0.824010|    0.011994|
|         345|   -6.164814|   -8.770007|    0.824011|    0.011994|
|         346|   -6.164918|   -8.774419|    0.824011|    0.011994|
|         347|   -6.165070|   -8.778304|    0.824011|    0.011994|
|         348|   -6.165509|   -8.781644|    0.824011|    0.011994|
|         349|   -6.166409|   -8.784436|    0.824011|    0.011994|
|         350|   -6.167857|   -8.786683|    0.824011|    0.011994|
|         351|   -6.169860|   -8.788402|    0.824011|    0.011994|
|         352|   -6.172363|   -8.789619|    0.824011|    0.011994|
|         353|   -6.175277|   -8.790372|    0.824011|    0.011994|
|         354|   -6.178508|   -8.790708|    0.824011|    0.011994|
|         355|   -6.181981|   -8.790685|    0.824011|    0.011994|
|         356|   -6.185651|   -8.790369|    0.824011|    0.011994|
|         357|   -6.189511|   -8.789829|    0.824011|    0.011994|
|         358|   -6.193582|   -8.789152|    0.824011|    0.011994|
|         359|   -6.197904|   -8.788412|    0.824011|    0.011994|
|         360|   -6.202526|   -8.787691|    0.824011|    0.011994|
|         361|   -6.207490|   -8.787071|    0.824011|    0.011994|
|         362|   -6.212827|   -8.786624|    0.824011|    0.011994|
|         363|   -6.218554|   -8.786424|    0.824011|    0.011994|
|         364|   -6.224672|   -8.786537|    0.824011|    0.011994|
|         365|   -6.231168|   -8.787023|    0.824011|    0.011994|
|         366|   -6.238023|   -8.787934|    0.824011|    0.011994|
|         367|   -6.245210|   -8.789308|    0.824010|    0.011994|
|         368|   -6.252697|   -8.791175|    0.824010|    0.011994|
|         369|   -6.260453|   -8.793555|    0.824010|    0.011995|
|         370|   -6.268439|   -8.796448|    0.824010|    0.011995|
|         371|   -6.276616|   -8.799844|    0.824010|    0.011995|
|         372|   -6.284937|   -8.803716|    0.824009|    0.011995|
|         373|   -6.293351|   -8.808023|    0.824009|    0.011995|
|         374|   -6.301798|   -8.812702|    0.824009|    0.011995|
|         375|   -6.310212|   -8.817677|    0.824009|    0.011995|
|         376|   -6.318522|   -8.822851|    0.824009|    0.011995|
|         377|   -6.326652|   -8.828109|    0.824008|    0.011995|
|         378|   -6.334522|   -8.833325|    0.824008|    0.011995|
|         379|   -6.342055|   -8.838356|    0.824008|    0.011995|
|         380|   -6.349173|   -8.843056|    0.824008|    0.011995|
|         381|   -6.355805|   -8.847277|    0.824008|    0.011995|
|         382|   -6.361888|   -8.850881|    0.824007|    0.011995|
|         383|   -6.367371|   -8.853745|    0.824007|    0.011995|
|         384|   -6.372213|   -8.855771|    0.824007|    0.011995|
|         385|   -6.376389|   -8.856895|    0.824007|    0.011995|
|         386|   -6.379891|   -8.857090|    0.824007|    0.011995|
|         387|   -6.382723|   -8.856369|    0.824007|    0.011995|
|         388|   -6.384907|   -8.854787|    0.824006|    0.011995|
|         389|   -6.386478|   -8.852431|    0.824006|    0.011995|
|         390|   -6.387482|   -8.849420|    0.824006|    0.011995|
|         391|   -6.387973|   -8.845891|    0.824006|    0.011995|
|         392|   -6.388013|   -8.841994|    0.824006|    0.011995|
|         393|   -6.387666|   -8.837884|    0.824006|    0.011995|
|         394|   -6.386997|   -8.833708|    0.824006|    0.011995|
|         395|   -6.386069|   -8.829609|    0.824006|    0.011995|
|         396|   -6.384943|   -8.825713|    0.824006|    0.011995|
|         397|   -6.383675|   -8.822131|    0.824006|    0.011995|
|         398|   -6.382317|   -8.818958|    0.824005|    0.011995|
|         399|   -6.380912|   -8.816268|    0.824005|    0.011995|
|         400|   -6.379500|   -8.814121|    0.824005|    0.011995|
|         401|   -6.378115|   -8.812557|    0.824005|    0.011994|
+-----------------------------------------------------------------------+
|Fixed CL Mode                           |Value                         |
+-----------------------------------------------------------------------+
|Current CL                              |0.824005                      |
|Target CL                               |0.824                         |
|Previous AOA                            |2.76561                       |
|Changed AoA by                          |-2.66986e-05                  |
+-----------------------------------------------------------------------+
+----------------------------------------------------------------+
|  Inner_Iter|    rms[Rho]|     rms[nu]|          CL|          CD|
+----------------------------------------------------------------+
|         402|   -4.766841|   -8.686332|    0.824005|    0.011994|
|         403|   -5.150749|   -8.741056|    0.824005|    0.011994|
|         404|   -5.392606|   -8.760568|    0.824005|    0.011994|
|         405|   -5.469588|   -8.772438|    0.824005|    0.011994|
|         406|   -5.521958|   -8.781593|    0.824005|    0.011994|
|         407|   -5.590028|   -8.789241|    0.824005|    0.011994|
|         408|   -5.673810|   -8.795845|    0.824005|    0.011994|
|         409|   -5.760559|   -8.801726|    0.824005|    0.011994|
|         410|   -5.834515|   -8.807095|    0.824005|    0.011994|
|         411|   -5.888263|   -8.812009|    0.824005|    0.011994|
|         412|   -5.923766|   -8.816494|    0.824005|    0.011994|
|         413|   -5.944742|   -8.820690|    0.824005|    0.011994|
|         414|   -5.954693|   -8.824806|    0.824005|    0.011994|
|         415|   -5.958873|   -8.828938|    0.824005|    0.011994|
|         416|   -5.963301|   -8.833060|    0.824005|    0.011994|
|         417|   -5.972086|   -8.837053|    0.824005|    0.011994|
|         418|   -5.986236|   -8.840804|    0.824005|    0.011994|
|         419|   -6.004194|   -8.844268|    0.824005|    0.011994|
|         420|   -6.023259|   -8.847433|    0.824005|    0.011994|
|         421|   -6.041247|   -8.850284|    0.824005|    0.011994|
|         422|   -6.057542|   -8.852790|    0.824005|    0.011994|
|         423|   -6.072915|   -8.854879|    0.824005|    0.011994|
|         424|   -6.088504|   -8.856476|    0.824005|    0.011994|
|         425|   -6.104900|   -8.857539|    0.824005|    0.011994|
|         426|   -6.121883|   -8.858054|    0.824005|    0.011994|
|         427|   -6.138659|   -8.858051|    0.824005|    0.011994|
|         428|   -6.154283|   -8.857592|    0.824005|    0.011994|
|         429|   -6.167977|   -8.856767|    0.824005|    0.011994|
|         430|   -6.179310|   -8.855677|    0.824005|    0.011994|
|         431|   -6.188262|   -8.854430|    0.824005|    0.011994|
|         432|   -6.195234|   -8.853127|    0.824005|    0.011994|
|         433|   -6.200983|   -8.851856|    0.824005|    0.011994|
|         434|   -6.206456|   -8.850689|    0.824005|    0.011994|
|         435|   -6.212572|   -8.849672|    0.824005|    0.011994|
|         436|   -6.220038|   -8.848834|    0.824005|    0.011994|
|         437|   -6.229233|   -8.848185|    0.824005|    0.011994|
|         438|   -6.240173|   -8.847723|    0.824005|    0.011994|
|         439|   -6.252521|   -8.847432|    0.824005|    0.011994|
|         440|   -6.265634|   -8.847294|    0.824005|    0.011994|
|         441|   -6.278658|   -8.847289|    0.824006|    0.011994|
|         442|   -6.290683|   -8.847392|    0.824006|    0.011994|
|         443|   -6.300959|   -8.847580|    0.824006|    0.011994|
|         444|   -6.309100|   -8.847828|    0.824006|    0.011994|
|         445|   -6.315185|   -8.848112|    0.824005|    0.011994|
|         446|   -6.319710|   -8.848402|    0.824005|    0.011994|
|         447|   -6.323398|   -8.848664|    0.824005|    0.011994|
|         448|   -6.326975|   -8.848859|    0.824005|    0.011994|
|         449|   -6.330993|   -8.848943|    0.824005|    0.011994|
|         450|   -6.335737|   -8.848869|    0.824005|    0.011994|
|         451|   -6.341219|   -8.848589|    0.824005|    0.011994|
|         452|   -6.347228|   -8.848059|    0.824005|    0.011994|
|         453|   -6.353416|   -8.847237|    0.824005|    0.011994|
|         454|   -6.359397|   -8.846094|    0.824005|    0.011994|
|         455|   -6.364840|   -8.844608|    0.824005|    0.011994|
|         456|   -6.369532|   -8.842768|    0.824005|    0.011994|
|         457|   -6.373409|   -8.840604|    0.824005|    0.011994|
|         458|   -6.376541|   -8.838128|    0.824005|    0.011994|
|         459|   -6.379088|   -8.835386|    0.824005|    0.011994|
|         460|   -6.381250|   -8.832427|    0.824005|    0.011994|
|         461|   -6.383217|   -8.829321|    0.824005|    0.011994|
|         462|   -6.385143|   -8.826147|    0.824005|    0.011994|
|         463|   -6.387132|   -8.822988|    0.824005|    0.011994|
|         464|   -6.389242|   -8.819939|    0.824004|    0.011994|
|         465|   -6.391497|   -8.817083|    0.824004|    0.011994|
|         466|   -6.393905|   -8.814508|    0.824004|    0.011994|
|         467|   -6.396467|   -8.812296|    0.824004|    0.011994|
|         468|   -6.399188|   -8.810521|    0.824004|    0.011994|
|         469|   -6.402081|   -8.809247|    0.824004|    0.011994|
|         470|   -6.405163|   -8.808530|    0.824004|    0.011994|
|         471|   -6.408458|   -8.808406|    0.824004|    0.011994|
|         472|   -6.411987|   -8.808901|    0.824003|    0.011994|
|         473|   -6.415767|   -8.810029|    0.824003|    0.011994|
|         474|   -6.419812|   -8.811781|    0.824003|    0.011994|
|         475|   -6.424129|   -8.814134|    0.824003|    0.011994|
|         476|   -6.428717|   -8.817042|    0.824003|    0.011994|
|         477|   -6.433573|   -8.820446|    0.824003|    0.011994|
|         478|   -6.438690|   -8.824264|    0.824003|    0.011994|
|         479|   -6.444055|   -8.828398|    0.824002|    0.011994|
|         480|   -6.449657|   -8.832732|    0.824002|    0.011994|
|         481|   -6.455481|   -8.837141|    0.824002|    0.011994|
|         482|   -6.461511|   -8.841487|    0.824002|    0.011994|
|         483|   -6.467726|   -8.845633|    0.824002|    0.011994|
|         484|   -6.474107|   -8.849442|    0.824002|    0.011994|
|         485|   -6.480628|   -8.852791|    0.824002|    0.011994|
|         486|   -6.487265|   -8.855577|    0.824002|    0.011994|
|         487|   -6.493987|   -8.857723|    0.824002|    0.011994|
|         488|   -6.500764|   -8.859185|    0.824002|    0.011994|
|         489|   -6.507563|   -8.859956|    0.824002|    0.011994|
|         490|   -6.514346|   -8.860066|    0.824002|    0.011994|
|         491|   -6.521077|   -8.859577|    0.824002|    0.011994|
|         492|   -6.527716|   -8.858585|    0.824002|    0.011994|
|         493|   -6.534222|   -8.857204|    0.824002|    0.011994|
|         494|   -6.540553|   -8.855567|    0.824002|    0.011994|
|         495|   -6.546664|   -8.853810|    0.824002|    0.011994|
|         496|   -6.552514|   -8.852073|    0.824002|    0.011994|
|         497|   -6.558057|   -8.850487|    0.824002|    0.011994|
|         498|   -6.563254|   -8.849172|    0.824002|    0.011994|
|         499|   -6.568064|   -8.848235|    0.824002|    0.011994|
|         500|   -6.572452|   -8.847765|    0.824002|    0.011994|
|         501|   -6.576385|   -8.847835|    0.824002|    0.011994|
+-----------------------------------------------------------------------+
|Fixed CL Mode                           |Value                         |
+-----------------------------------------------------------------------+
|Current CL                              |0.824002                      |
|Target CL                               |0.824                         |
|Previous AOA                            |2.76558                       |
|Changed AoA by                          |-1.01403e-05                  |
+-----------------------------------------------------------------------+
+----------------------------------------------------------------+
|  Inner_Iter|    rms[Rho]|     rms[nu]|          CL|          CD|
+----------------------------------------------------------------+
|         502|   -5.187217|   -8.821918|    0.824002|    0.011994|
|         503|   -5.570677|   -8.836503|    0.824002|    0.011994|
|         504|   -5.810511|   -8.842417|    0.824002|    0.011994|
|         505|   -5.885021|   -8.847147|    0.824002|    0.011994|
|         506|   -5.934825|   -8.851848|    0.824002|    0.011994|
|         507|   -5.999419|   -8.856757|    0.824002|    0.011994|
|         508|   -6.078059|   -8.861924|    0.824003|    0.011994|
|         509|   -6.157803|   -8.867356|    0.824003|    0.011994|
|         510|   -6.224007|   -8.873034|    0.824003|    0.011994|
|         511|   -6.270963|   -8.878907|    0.824003|    0.011994|
|         512|   -6.301476|   -8.884912|    0.824003|    0.011994|
|         513|   -6.319401|   -8.891005|    0.824003|    0.011994|
|         514|   -6.327951|   -8.897151|    0.824003|    0.011994|
|         515|   -6.331470|   -8.903304|    0.824003|    0.011994|
|         516|   -6.334811|   -8.909389|    0.824003|    0.011994|
|         517|   -6.341262|   -8.915320|    0.824003|    0.011994|
|         518|   -6.351569|   -8.921020|    0.824003|    0.011994|
|         519|   -6.364419|   -8.926427|    0.824003|    0.011994|
|         520|   -6.377706|   -8.931497|    0.824003|    0.011994|
|         521|   -6.389881|   -8.936194|    0.824003|    0.011994|
|         522|   -6.400629|   -8.940485|    0.824003|    0.011994|
|         523|   -6.410592|   -8.944338|    0.824003|    0.011994|
|         524|   -6.420558|   -8.947730|    0.824003|    0.011994|
|         525|   -6.430856|   -8.950654|    0.824003|    0.011994|
|         526|   -6.441242|   -8.953114|    0.824003|    0.011994|
|         527|   -6.451140|   -8.955131|    0.824003|    0.011994|
|         528|   -6.459959|   -8.956742|    0.824003|    0.011994|
|         529|   -6.467298|   -8.957991|    0.824003|    0.011994|
|         530|   -6.473029|   -8.958934|    0.824003|    0.011994|
|         531|   -6.477285|   -8.959625|    0.824003|    0.011994|
|         532|   -6.480429|   -8.960119|    0.824003|    0.011994|
|         533|   -6.482988|   -8.960464|    0.824003|    0.011994|
|         534|   -6.485549|   -8.960703|    0.824003|    0.011994|
|         535|   -6.488645|   -8.960869|    0.824003|    0.011994|
|         536|   -6.492655|   -8.960989|    0.824003|    0.011994|
|         537|   -6.497760|   -8.961084|    0.824003|    0.011994|
|         538|   -6.503927|   -8.961169|    0.824003|    0.011994|
|         539|   -6.510945|   -8.961258|    0.824003|    0.011994|
|         540|   -6.518465|   -8.961361|    0.824003|    0.011994|
|         541|   -6.526073|   -8.961492|    0.824003|    0.011994|
|         542|   -6.533370|   -8.961666|    0.824003|    0.011994|
|         543|   -6.540059|   -8.961899|    0.824003|    0.011994|
|         544|   -6.546011|   -8.962210|    0.824003|    0.011994|
|         545|   -6.551287|   -8.962621|    0.824003|    0.011994|
|         546|   -6.556105|   -8.963152|    0.824002|    0.011994|
|         547|   -6.560764|   -8.963823|    0.824002|    0.011994|
|         548|   -6.565561|   -8.964651|    0.824002|    0.011994|
|         549|   -6.570718|   -8.965649|    0.824002|    0.011994|
|         550|   -6.576338|   -8.966824|    0.824002|    0.011994|
|         551|   -6.582403|   -8.968177|    0.824002|    0.011994|
|         552|   -6.588793|   -8.969699|    0.824002|    0.011994|
|         553|   -6.595319|   -8.971374|    0.824002|    0.011994|
|         554|   -6.601776|   -8.973176|    0.824002|    0.011994|
|         555|   -6.607974|   -8.975068|    0.824002|    0.011994|
|         556|   -6.613777|   -8.977005|    0.824002|    0.011994|
|         557|   -6.619108|   -8.978935|    0.824002|    0.011994|
|         558|   -6.623949|   -8.980797|    0.824002|    0.011994|
|         559|   -6.628326|   -8.982528|    0.824002|    0.011994|
|         560|   -6.632285|   -8.984061|    0.824002|    0.011994|
|         561|   -6.635875|   -8.985332|    0.824001|    0.011994|
|         562|   -6.639134|   -8.986284|    0.824001|    0.011994|
|         563|   -6.642082|   -8.986870|    0.824001|    0.011994|
|         564|   -6.644724|   -8.987053|    0.824001|    0.011994|
|         565|   -6.647052|   -8.986816|    0.824001|    0.011994|
|         566|   -6.649059|   -8.986157|    0.824001|    0.011994|
|         567|   -6.650738|   -8.985095|    0.824001|    0.011994|
|         568|   -6.652092|   -8.983666|    0.824001|    0.011994|
|         569|   -6.653132|   -8.981921|    0.824001|    0.011994|
|         570|   -6.653877|   -8.979927|    0.824001|    0.011994|
|         571|   -6.654354|   -8.977759|    0.824001|    0.011994|
|         572|   -6.654595|   -8.975498|    0.824001|    0.011994|
|         573|   -6.654631|   -8.973226|    0.824001|    0.011994|
|         574|   -6.654497|   -8.971023|    0.824000|    0.011994|
|         575|   -6.654226|   -8.968965|    0.824000|    0.011994|
|         576|   -6.653851|   -8.967118|    0.824000|    0.011994|
|         577|   -6.653406|   -8.965539|    0.824000|    0.011994|
|         578|   -6.652924|   -8.964270|    0.824000|    0.011994|
|         579|   -6.652437|   -8.963345|    0.824000|    0.011994|
|         580|   -6.651978|   -8.962780|    0.824000|    0.011994|
|         581|   -6.651578|   -8.962579|    0.824000|    0.011995|
|         582|   -6.651268|   -8.962735|    0.824000|    0.011995|
|         583|   -6.651078|   -8.963226|    0.824000|    0.011995|
|         584|   -6.651037|   -8.964018|    0.824000|    0.011995|
|         585|   -6.651171|   -8.965071|    0.824000|    0.011995|
|         586|   -6.651505|   -8.966333|    0.824000|    0.011995|
|         587|   -6.652060|   -8.967749|    0.824000|    0.011995|
|         588|   -6.652858|   -8.969258|    0.824000|    0.011995|
|         589|   -6.653917|   -8.970799|    0.824000|    0.011995|
|         590|   -6.655251|   -8.972314|    0.823999|    0.011995|
|         591|   -6.656876|   -8.973748|    0.823999|    0.011995|
|         592|   -6.658801|   -8.975053|    0.823999|    0.011995|
|         593|   -6.661035|   -8.976191|    0.823999|    0.011995|
|         594|   -6.663585|   -8.977135|    0.823999|    0.011995|
|         595|   -6.666452|   -8.977866|    0.823999|    0.011995|
|         596|   -6.669637|   -8.978379|    0.823999|    0.011995|
|         597|   -6.673138|   -8.978681|    0.823999|    0.011995|
|         598|   -6.676947|   -8.978785|    0.823999|    0.011995|
|         599|   -6.681057|   -8.978715|    0.823999|    0.011995|
|         600|   -6.685453|   -8.978497|    0.823999|    0.011995|
|         601|   -6.690121|   -8.978164|    0.823999|    0.011995|
+-----------------------------------------------------------------------+
|Fixed CL Mode                           |Value                         |
+-----------------------------------------------------------------------+
|Current CL                              |0.823999                      |
|Target CL                               |0.824                         |
|Previous AOA                            |2.76557                       |
|Changed AoA by                          |3.57525e-06                   |
+-----------------------------------------------------------------------+
+----------------------------------------------------------------+
|  Inner_Iter|    rms[Rho]|     rms[nu]|          CL|          CD|
+----------------------------------------------------------------+
|         602|   -5.638179|   -8.971168|    0.823999|    0.011995|
|         603|   -6.015416|   -8.973999|    0.823999|    0.011995|
|         604|   -6.244828|   -8.974489|    0.823999|    0.011995|
|         605|   -6.316348|   -8.974504|    0.823999|    0.011995|
|         606|   -6.363196|   -8.974352|    0.823999|    0.011995|
|         607|   -6.420320|   -8.974133|    0.823999|    0.011995|
|         608|   -6.485136|   -8.973895|    0.823999|    0.011995|
|         609|   -6.544925|   -8.973669|    0.823999|    0.011995|
|         610|   -6.589090|   -8.973470|    0.823999|    0.011995|
|         611|   -6.616986|   -8.973301|    0.823999|    0.011995|
|         612|   -6.633677|   -8.973161|    0.823999|    0.011995|
|         613|   -6.643333|   -8.973050|    0.823999|    0.011995|
|         614|   -6.648575|   -8.972972|    0.823999|    0.011995|
|         615|   -6.651950|   -8.972927|    0.823999|    0.011995|
|         616|   -6.655956|   -8.972916|    0.823999|    0.011995|
|         617|   -6.662146|   -8.972938|    0.823999|    0.011995|
|         618|   -6.670621|   -8.972997|    0.823999|    0.011994|
|         619|   -6.680307|   -8.973102|    0.823999|    0.011994|
|         620|   -6.689746|   -8.973265|    0.823999|    0.011994|
|         621|   -6.697889|   -8.973502|    0.823999|    0.011994|
|         622|   -6.704487|   -8.973830|    0.823999|    0.011994|
|         623|   -6.709897|   -8.974266|    0.823999|    0.011994|
|         624|   -6.714627|   -8.974828|    0.823999|    0.011994|
|         625|   -6.718998|   -8.975532|    0.823999|    0.011994|
|         626|   -6.723064|   -8.976394|    0.823999|    0.011994|
|         627|   -6.726719|   -8.977427|    0.823999|    0.011994|
|         628|   -6.729823|   -8.978644|    0.823999|    0.011994|
|         629|   -6.732275|   -8.980050|    0.823999|    0.011994|
|         630|   -6.734035|   -8.981648|    0.823999|    0.011994|
|         631|   -6.735130|   -8.983437|    0.823999|    0.011994|
|         632|   -6.735657|   -8.985410|    0.823999|    0.011994|
|         633|   -6.735780|   -8.987555|    0.823999|    0.011994|
|         634|   -6.735713|   -8.989857|    0.823999|    0.011994|
|         635|   -6.735676|   -8.992298|    0.823999|    0.011994|
|         636|   -6.735853|   -8.994857|    0.823999|    0.011994|
|         637|   -6.736371|   -8.997511|    0.823999|    0.011994|
|         638|   -6.737283|   -9.000236|    0.823999|    0.011994|
|         639|   -6.738578|   -9.003010|    0.823999|    0.011994|
|         640|   -6.740195|   -9.005810|    0.823999|    0.011994|
|         641|   -6.742049|   -9.008620|    0.823999|    0.011994|
|         642|   -6.744054|   -9.011422|    0.823999|    0.011994|
|         643|   -6.746152|   -9.014208|    0.823999|    0.011994|
|         644|   -6.748331|   -9.016970|    0.823999|    0.011994|
|         645|   -6.750626|   -9.019709|    0.823999|    0.011994|
|         646|   -6.753110|   -9.022429|    0.823999|    0.011994|
|         647|   -6.755878|   -9.025138|    0.823999|    0.011994|
|         648|   -6.759020|   -9.027851|    0.823999|    0.011994|
|         649|   -6.762604|   -9.030585|    0.823999|    0.011994|
|         650|   -6.766664|   -9.033361|    0.823999|    0.011994|
|         651|   -6.771199|   -9.036200|    0.823999|    0.011994|
|         652|   -6.776180|   -9.039128|    0.823999|    0.011994|
|         653|   -6.781560|   -9.042168|    0.824000|    0.011994|
|         654|   -6.787286|   -9.045342|    0.824000|    0.011994|
|         655|   -6.793308|   -9.048673|    0.824000|    0.011994|
|         656|   -6.799590|   -9.052179|    0.824000|    0.011994|
|         657|   -6.806107|   -9.055876|    0.824000|    0.011994|
|         658|   -6.812847|   -9.059776|    0.824000|    0.011994|
|         659|   -6.819809|   -9.063884|    0.824000|    0.011994|
|         660|   -6.826990|   -9.068203|    0.824000|    0.011994|
|         661|   -6.834387|   -9.072730|    0.824000|    0.011994|
|         662|   -6.841988|   -9.077455|    0.824000|    0.011994|
|         663|   -6.849772|   -9.082365|    0.824000|    0.011994|
|         664|   -6.857710|   -9.087441|    0.824000|    0.011994|
|         665|   -6.865764|   -9.092659|    0.824000|    0.011994|
|         666|   -6.873886|   -9.097992|    0.824000|    0.011994|
|         667|   -6.882027|   -9.103408|    0.824000|    0.011994|
|         668|   -6.890132|   -9.108875|    0.824000|    0.011994|
|         669|   -6.898144|   -9.114356|    0.824000|    0.011994|
|         670|   -6.906004|   -9.119819|    0.824000|    0.011994|
|         671|   -6.913653|   -9.125227|    0.824001|    0.011994|
|         672|   -6.921031|   -9.130550|    0.824001|    0.011994|
|         673|   -6.928077|   -9.135759|    0.824001|    0.011994|
|         674|   -6.934733|   -9.140832|    0.824001|    0.011994|
|         675|   -6.940944|   -9.145749|    0.824001|    0.011994|
|         676|   -6.946660|   -9.150499|    0.824001|    0.011994|
|         677|   -6.951836|   -9.155078|    0.824001|    0.011994|
|         678|   -6.956439|   -9.159488|    0.824001|    0.011994|
|         679|   -6.960445|   -9.163738|    0.824001|    0.011994|
|         680|   -6.963843|   -9.167844|    0.824001|    0.011994|
|         681|   -6.966633|   -9.171826|    0.824001|    0.011994|
|         682|   -6.968830|   -9.175710|    0.824001|    0.011994|
|         683|   -6.970459|   -9.179524|    0.824001|    0.011994|
|         684|   -6.971557|   -9.183299|    0.824001|    0.011994|
|         685|   -6.972173|   -9.187065|    0.824001|    0.011994|
|         686|   -6.972361|   -9.190854|    0.824001|    0.011995|
|         687|   -6.972184|   -9.194693|    0.824001|    0.011995|
|         688|   -6.971708|   -9.198610|    0.824001|    0.011995|
|         689|   -6.971001|   -9.202626|    0.824001|    0.011995|
|         690|   -6.970133|   -9.206761|    0.824001|    0.011995|
|         691|   -6.969174|   -9.211027|    0.824001|    0.011995|
|         692|   -6.968190|   -9.215433|    0.824001|    0.011995|
|         693|   -6.967245|   -9.219983|    0.824001|    0.011995|
|         694|   -6.966400|   -9.224675|    0.824001|    0.011995|
|         695|   -6.965711|   -9.229503|    0.824001|    0.011995|
|         696|   -6.965228|   -9.234457|    0.824001|    0.011995|
|         697|   -6.964997|   -9.239523|    0.824001|    0.011995|
|         698|   -6.965062|   -9.244682|    0.824001|    0.011995|
|         699|   -6.965456|   -9.249912|    0.824001|    0.011995|
|         700|   -6.966214|   -9.255189|    0.824001|    0.011995|
|         701|   -6.967361|   -9.260488|    0.824001|    0.011995|
+-----------------------------------------------------------------------+
|Fixed CL Mode                           |Value                         |
+-----------------------------------------------------------------------+
|Current CL                              |0.824001                      |
|Target CL                               |0.824                         |
|Previous AOA                            |2.76558                       |
|Changed AoA by                          |-3.09414e-06                  |
+-----------------------------------------------------------------------+
+----------------------------------------------------------------+
|  Inner_Iter|    rms[Rho]|     rms[nu]|          CL|          CD|
+----------------------------------------------------------------+
|         702|   -5.702473|   -9.249157|    0.824001|    0.011995|
|         703|   -6.086084|   -9.262681|    0.824000|    0.011995|
|         704|   -6.328381|   -9.270069|    0.824000|    0.011995|
|         705|   -6.405132|   -9.276304|    0.824000|    0.011995|
|         706|   -6.455339|   -9.282157|    0.824000|    0.011995|
|         707|   -6.518935|   -9.287761|    0.824000|    0.011995|
|         708|   -6.594820|   -9.293108|    0.824000|    0.011995|
|         709|   -6.669325|   -9.298169|    0.824000|    0.011995|
|         710|   -6.728027|   -9.302920|    0.824000|    0.011995|
|         711|   -6.766884|   -9.307346|    0.824000|    0.011995|
|         712|   -6.790449|   -9.311452|    0.824000|    0.011995|
|         713|   -6.803650|   -9.315276|    0.824000|    0.011995|
|         714|   -6.810096|   -9.318870|    0.824000|    0.011995|
|         715|   -6.813742|   -9.322291|    0.824000|    0.011995|
|         716|   -6.818605|   -9.325565|    0.824000|    0.011995|
|         717|   -6.827253|   -9.328708|    0.824000|    0.011995|
|         718|   -6.840054|   -9.331735|    0.824000|    0.011995|
|         719|   -6.855545|   -9.334660|    0.824000|    0.011995|
|         720|   -6.871508|   -9.337497|    0.824000|    0.011995|
|         721|   -6.886210|   -9.340257|    0.824000|    0.011995|
|         722|   -6.899141|   -9.342941|    0.824000|    0.011995|
|         723|   -6.910853|   -9.345544|    0.824000|    0.011995|
|         724|   -6.922229|   -9.348059|    0.824000|    0.011995|
|         725|   -6.933840|   -9.350478|    0.824000|    0.011995|
|         726|   -6.945750|   -9.352794|    0.824000|    0.011995|
|         727|   -6.957660|   -9.355005|    0.824000|    0.011995|
|         728|   -6.969134|   -9.357109|    0.824000|    0.011995|
|         729|   -6.979763|   -9.359109|    0.823999|    0.011995|
|         730|   -6.989240|   -9.361009|    0.823999|    0.011995|
|         731|   -6.997404|   -9.362818|    0.823999|    0.011995|
|         732|   -7.004291|   -9.364546|    0.823999|    0.011995|
|         733|   -7.010150|   -9.366208|    0.823999|    0.011995|
|         734|   -7.015400|   -9.367821|    0.823999|    0.011994|
|         735|   -7.020523|   -9.369402|    0.823999|    0.011994|
|         736|   -7.025943|   -9.370974|    0.823999|    0.011994|
|         737|   -7.031932|   -9.372557|    0.823999|    0.011994|
|         738|   -7.038567|   -9.374175|    0.823999|    0.011994|
|         739|   -7.045727|   -9.375849|    0.823999|    0.011994|
|         740|   -7.053128|   -9.377603|    0.823999|    0.011994|
|         741|   -7.060382|   -9.379459|    0.823999|    0.011994|
|         742|   -7.067089|   -9.381437|    0.823999|    0.011994|
|         743|   -7.072940|   -9.383559|    0.823999|    0.011994|
|         744|   -7.077792|   -9.385844|    0.823999|    0.011994|
|         745|   -7.081710|   -9.388309|    0.823999|    0.011994|
|         746|   -7.084933|   -9.390969|    0.823999|    0.011994|
|         747|   -7.087796|   -9.393838|    0.823999|    0.011994|
|         748|   -7.090637|   -9.396927|    0.823999|    0.011994|
|         749|   -7.093719|   -9.400242|    0.823999|    0.011994|
|         750|   -7.097189|   -9.403789|    0.823999|    0.011994|
|         751|   -7.101068|   -9.407570|    0.823999|    0.011994|
|         752|   -7.105273|   -9.411585|    0.823999|    0.011994|
|         753|   -7.109661|   -9.415832|    0.823999|    0.011994|
|         754|   -7.114069|   -9.420310|    0.823999|    0.011994|
|         755|   -7.118355|   -9.425015|    0.823999|    0.011994|
|         756|   -7.122422|   -9.429944|    0.823999|    0.011994|
|         757|   -7.126232|   -9.435092|    0.823999|    0.011994|
|         758|   -7.129796|   -9.440456|    0.823999|    0.011994|
|         759|   -7.133159|   -9.446035|    0.823999|    0.011994|
|         760|   -7.136380|   -9.451828|    0.823999|    0.011994|
|         761|   -7.139515|   -9.457836|    0.823999|    0.011994|
|         762|   -7.142603|   -9.464058|    0.823999|    0.011994|
|         763|   -7.145663|   -9.470498|    0.823999|    0.011994|
|         764|   -7.148692|   -9.477160|    0.823999|    0.011994|
|         765|   -7.151672|   -9.484048|    0.823999|    0.011994|
|         766|   -7.154578|   -9.491165|    0.823999|    0.011994|
|         767|   -7.157379|   -9.498514|    0.823999|    0.011994|
|         768|   -7.160047|   -9.506095|    0.823999|    0.011994|
|         769|   -7.162558|   -9.513906|    0.823999|    0.011994|
|         770|   -7.164890|   -9.521939|    0.823999|    0.011994|
|         771|   -7.167024|   -9.530181|    0.823999|    0.011994|
|         772|   -7.168945|   -9.538613|    0.823999|    0.011994|
|         773|   -7.170638|   -9.547211|    0.823999|    0.011994|
|         774|   -7.172089|   -9.555940|    0.823999|    0.011994|
|         775|   -7.173285|   -9.564762|    0.823999|    0.011994|
|         776|   -7.174215|   -9.573629|    0.823999|    0.011994|
|         777|   -7.174873|   -9.582490|    0.823999|    0.011994|
|         778|   -7.175254|   -9.591288|    0.823999|    0.011994|
|         779|   -7.175359|   -9.599966|    0.823999|    0.011994|
|         780|   -7.175191|   -9.608464|    0.823999|    0.011994|
|         781|   -7.174761|   -9.616729|    0.823999|    0.011994|
|         782|   -7.174083|   -9.624708|    0.823999|    0.011994|
|         783|   -7.173173|   -9.632360|    0.823999|    0.011994|
|         784|   -7.172052|   -9.639652|    0.823999|    0.011994|
|         785|   -7.170745|   -9.646560|    0.823999|    0.011994|
|         786|   -7.169277|   -9.653075|    0.823999|    0.011994|
|         787|   -7.167678|   -9.659195|    0.823999|    0.011994|
|         788|   -7.165977|   -9.664930|    0.823999|    0.011994|
|         789|   -7.164206|   -9.670299|    0.823999|    0.011994|
|         790|   -7.162396|   -9.675322|    0.823999|    0.011994|
|         791|   -7.160579|   -9.680028|    0.823999|    0.011994|
|         792|   -7.158786|   -9.684441|    0.823999|    0.011994|
|         793|   -7.157047|   -9.688586|    0.823999|    0.011994|
|         794|   -7.155390|   -9.692481|    0.823999|    0.011994|
|         795|   -7.153841|   -9.696142|    0.824000|    0.011994|
|         796|   -7.152425|   -9.699574|    0.824000|    0.011994|
|         797|   -7.151163|   -9.702779|    0.824000|    0.011994|
|         798|   -7.150074|   -9.705750|    0.824000|    0.011994|
|         799|   -7.149172|   -9.708476|    0.824000|    0.011994|
|         800|   -7.148469|   -9.710944|    0.824000|    0.011994|
|         801|   -7.147972|   -9.713137|    0.824000|    0.011994|
|         802|   -7.147688|   -9.715040|    0.824000|    0.011994|
|         803|   -7.147614|   -9.716642|    0.824000|    0.011994|
|         804|   -7.147750|   -9.717935|    0.824000|    0.011994|
|         805|   -7.148085|   -9.718918|    0.824000|    0.011995|
|         806|   -7.148611|   -9.719601|    0.824000|    0.011995|
|         807|   -7.149311|   -9.719999|    0.824000|    0.011995|
|         808|   -7.150166|   -9.720138|    0.824000|    0.011995|
|         809|   -7.151153|   -9.720052|    0.824000|    0.011995|
|         810|   -7.152247|   -9.719784|    0.824000|    0.011995|
|         811|   -7.153418|   -9.719380|    0.824000|    0.011995|
|         812|   -7.154635|   -9.718893|    0.824000|    0.011995|
|         813|   -7.155863|   -9.718380|    0.824000|    0.011995|
|         814|   -7.157067|   -9.717894|    0.824000|    0.011995|
|         815|   -7.158209|   -9.717493|    0.824000|    0.011995|
|         816|   -7.159254|   -9.717229|    0.824000|    0.011995|
|         817|   -7.160164|   -9.717151|    0.824000|    0.011995|
|         818|   -7.160906|   -9.717303|    0.824000|    0.011995|
|         819|   -7.161448|   -9.717724|    0.824000|    0.011995|
|         820|   -7.161761|   -9.718446|    0.824000|    0.011995|
|         821|   -7.161822|   -9.719493|    0.824000|    0.011995|
|         822|   -7.161612|   -9.720884|    0.824000|    0.011995|
|         823|   -7.161119|   -9.722628|    0.824000|    0.011995|
|         824|   -7.160336|   -9.724728|    0.824000|    0.011995|
|         825|   -7.159263|   -9.727177|    0.824000|    0.011995|
|         826|   -7.157908|   -9.729962|    0.823999|    0.011995|
|         827|   -7.156282|   -9.733062|    0.823999|    0.011995|
|         828|   -7.154407|   -9.736447|    0.823999|    0.011995|
|         829|   -7.152305|   -9.740081|    0.823999|    0.011995|
|         830|   -7.150006|   -9.743919|    0.823999|    0.011995|
|         831|   -7.147544|   -9.747910|    0.823999|    0.011995|
|         832|   -7.144953|   -9.751995|    0.823999|    0.011995|
|         833|   -7.142272|   -9.756111|    0.823999|    0.011995|
|         834|   -7.139538|   -9.760189|    0.823999|    0.011995|
|         835|   -7.136792|   -9.764155|    0.823999|    0.011995|
|         836|   -7.134071|   -9.767935|    0.823999|    0.011995|
|         837|   -7.131411|   -9.771455|    0.823999|    0.011995|
|         838|   -7.128850|   -9.774640|    0.823999|    0.011995|
|         839|   -7.126419|   -9.777423|    0.823999|    0.011995|
|         840|   -7.124150|   -9.779743|    0.823999|    0.011995|
|         841|   -7.122071|   -9.781550|    0.823999|    0.011995|
|         842|   -7.120207|   -9.782804|    0.823999|    0.011995|
|         843|   -7.118580|   -9.783482|    0.823999|    0.011995|
|         844|   -7.117209|   -9.783576|    0.823999|    0.011995|
|         845|   -7.116112|   -9.783093|    0.823999|    0.011995|
|         846|   -7.115300|   -9.782060|    0.823999|    0.011995|
|         847|   -7.114785|   -9.780515|    0.823999|    0.011995|
|         848|   -7.114574|   -9.778513|    0.823999|    0.011995|
|         849|   -7.114672|   -9.776119|    0.823999|    0.011995|
|         850|   -7.115080|   -9.773408|    0.823999|    0.011994|
|         851|   -7.115797|   -9.770458|    0.823999|    0.011994|
|         852|   -7.116820|   -9.767355|    0.823999|    0.011994|
|         853|   -7.118141|   -9.764181|    0.823999|    0.011994|
|         854|   -7.119752|   -9.761020|    0.823999|    0.011994|
|         855|   -7.121640|   -9.757949|    0.823999|    0.011994|
|         856|   -7.123790|   -9.755043|    0.823999|    0.011994|
|         857|   -7.126184|   -9.752369|    0.823999|    0.011994|
|         858|   -7.128802|   -9.749988|    0.823999|    0.011994|
|         859|   -7.131618|   -9.747952|    0.823999|    0.011994|
|         860|   -7.134607|   -9.746306|    0.823999|    0.011994|
|         861|   -7.137739|   -9.745089|    0.823999|    0.011994|
|         862|   -7.140981|   -9.744328|    0.823999|    0.011994|
|         863|   -7.144299|   -9.744048|    0.823999|    0.011994|
|         864|   -7.147655|   -9.744261|    0.823999|    0.011994|
|         865|   -7.151009|   -9.744977|    0.823999|    0.011994|
|         866|   -7.154322|   -9.746198|    0.823999|    0.011994|
|         867|   -7.157550|   -9.747917|    0.823999|    0.011994|
|         868|   -7.160653|   -9.750127|    0.823999|    0.011994|
|         869|   -7.163587|   -9.752810|    0.823999|    0.011994|
|         870|   -7.166312|   -9.755947|    0.823999|    0.011994|
|         871|   -7.168789|   -9.759514|    0.823999|    0.011994|
|         872|   -7.170984|   -9.763482|    0.823999|    0.011994|
|         873|   -7.172864|   -9.767819|    0.823999|    0.011994|
|         874|   -7.174404|   -9.772490|    0.823999|    0.011994|
|         875|   -7.175581|   -9.777459|    0.823999|    0.011994|
|         876|   -7.176382|   -9.782686|    0.823999|    0.011994|
|         877|   -7.176799|   -9.788130|    0.823999|    0.011994|
|         878|   -7.176830|   -9.793750|    0.823999|    0.011994|
|         879|   -7.176482|   -9.799503|    0.823999|    0.011994|
|         880|   -7.175767|   -9.805346|    0.823999|    0.011994|
|         881|   -7.174706|   -9.811235|    0.823999|    0.011994|
|         882|   -7.173322|   -9.817128|    0.823999|    0.011994|
|         883|   -7.171645|   -9.822981|    0.823999|    0.011994|
|         884|   -7.169710|   -9.828752|    0.823999|    0.011994|
|         885|   -7.167552|   -9.834400|    0.823999|    0.011994|
|         886|   -7.165211|   -9.839881|    0.823999|    0.011994|
|         887|   -7.162727|   -9.845156|    0.823999|    0.011994|
|         888|   -7.160140|   -9.850184|    0.823999|    0.011994|
|         889|   -7.157492|   -9.854927|    0.823999|    0.011994|
|         890|   -7.154821|   -9.859348|    0.823999|    0.011994|
|         891|   -7.152165|   -9.863411|    0.823999|    0.011994|
|         892|   -7.149560|   -9.867083|    0.823999|    0.011994|
|         893|   -7.147041|   -9.870337|    0.823999|    0.011994|
|         894|   -7.144639|   -9.873148|    0.823999|    0.011994|
|         895|   -7.142382|   -9.875496|    0.823999|    0.011994|
|         896|   -7.140297|   -9.877367|    0.823999|    0.011994|
|         897|   -7.138408|   -9.878755|    0.823999|    0.011994|
|         898|   -7.136736|   -9.879661|    0.823999|    0.011994|
|         899|   -7.135301|   -9.880093|    0.823999|    0.011994|
|         900|   -7.134117|   -9.880066|    0.823999|    0.011994|
|         901|   -7.133200|   -9.879604|    0.824000|    0.011994|
+-----------------------------------------------------------------------+
|Fixed CL Mode                           |Value                         |
+-----------------------------------------------------------------------+
|Current CL                              |0.824                         |
|Target CL                               |0.824                         |
|Previous AOA                            |2.76557                       |
|Changed AoA by                          |2.53389e-06                   |
+-----------------------------------------------------------------------+
+----------------------------------------------------------------+
|  Inner_Iter|    rms[Rho]|     rms[nu]|          CL|          CD|
+----------------------------------------------------------------+
|         902|   -5.789175|   -9.732737|    0.824000|    0.011994|
|         903|   -6.171955|   -9.794869|    0.824000|    0.011994|
|         904|   -6.411626|   -9.816570|    0.824000|    0.011994|
|         905|   -6.487114|   -9.828228|    0.824000|    0.011994|
|         906|   -6.537462|   -9.835467|    0.824000|    0.011994|
|         907|   -6.601869|   -9.839856|    0.824000|    0.011994|
[...]
|        5298|   -6.047526|   -7.931683|    0.824239|    0.011999|
|        5299|   -6.054233|   -7.935580|    0.824239|    0.011999|
|        5300|   -6.060506|   -7.939531|    0.824239|    0.011999|
|        5301|   -6.066312|   -7.943544|    0.824239|    0.011998|
|        5302|   -6.071629|   -7.947624|    0.824239|    0.011998|
|        5303|   -6.076451|   -7.951774|    0.824239|    0.011998|
|        5304|   -6.080783|   -7.955994|    0.824239|    0.011998|
|        5305|   -6.084643|   -7.960284|    0.824240|    0.011998|
|        5306|   -6.088060|   -7.964644|    0.824240|    0.011998|
|        5307|   -6.091073|   -7.969071|    0.824240|    0.011998|
|        5308|   -6.093729|   -7.973559|    0.824240|    0.011998|
|        5309|   -6.096082|   -7.978102|    0.824240|    0.011998|
|        5310|   -6.098192|   -7.982694|    0.824240|    0.011998|
|        5311|   -6.100117|   -7.987331|    0.824240|    0.011998|
|        5312|   -6.101917|   -7.992007|    0.824240|    0.011998|
|        5313|   -6.103654|   -7.996719|    0.824240|    0.011998|
|        5314|   -6.105383|   -8.001466|    0.824240|    0.011998|
|        5315|   -6.107157|   -8.006246|    0.824241|    0.011998|
|        5316|   -6.109023|   -8.011062|    0.824241|    0.011998|
|        5317|   -6.111025|   -8.015914|    0.824241|    0.011998|
|        5318|   -6.113198|   -8.020806|    0.824241|    0.011998|
|        5319|   -6.115572|   -8.025742|    0.824241|    0.011998|
|        5320|   -6.118169|   -8.030726|    0.824241|    0.011998|
|        5321|   -6.121005|   -8.035763|    0.824241|    0.011998|
|        5322|   -6.124090|   -8.040859|    0.824242|    0.011998|
|        5323|   -6.127427|   -8.046016|    0.824242|    0.011998|
|        5324|   -6.131011|   -8.051240|    0.824242|    0.011999|
|        5325|   -6.134830|   -8.056530|    0.824242|    0.011999|
|        5326|   -6.138870|   -8.061890|    0.824242|    0.011999|
|        5327|   -6.143106|   -8.067319|    0.824242|    0.011999|
|        5328|   -6.147510|   -8.072816|    0.824243|    0.011999|
|        5329|   -6.152048|   -8.078382|    0.824243|    0.011999|
|        5330|   -6.156682|   -8.084013|    0.824243|    0.011999|
|        5331|   -6.161371|   -8.089707|    0.824243|    0.011999|
|        5332|   -6.166071|   -8.095459|    0.824243|    0.011999|
|        5333|   -6.170736|   -8.101264|    0.824243|    0.011999|
|        5334|   -6.175319|   -8.107117|    0.824244|    0.011999|
|        5335|   -6.179778|   -8.113013|    0.824244|    0.011999|
|        5336|   -6.184069|   -8.118946|    0.824244|    0.011999|
|        5337|   -6.188156|   -8.124911|    0.824244|    0.012000|
|        5338|   -6.192005|   -8.130904|    0.824244|    0.012000|
|        5339|   -6.195592|   -8.136920|    0.824244|    0.012000|
|        5340|   -6.198900|   -8.142957|    0.824245|    0.012000|
|        5341|   -6.201919|   -8.149011|    0.824245|    0.012000|
|        5342|   -6.204648|   -8.155081|    0.824245|    0.012000|
|        5343|   -6.207098|   -8.161165|    0.824245|    0.012000|
|        5344|   -6.209285|   -8.167265|    0.824245|    0.012000|
|        5345|   -6.211233|   -8.173380|    0.824245|    0.012000|
|        5346|   -6.212975|   -8.179513|    0.824245|    0.012000|
|        5347|   -6.214548|   -8.185664|    0.824246|    0.012000|
|        5348|   -6.215997|   -8.191836|    0.824246|    0.012000|
|        5349|   -6.217361|   -8.198032|    0.824246|    0.012000|
|        5350|   -6.218689|   -8.204256|    0.824246|    0.012001|
|        5351|   -6.220025|   -8.210511|    0.824246|    0.012001|
|        5352|   -6.221415|   -8.216801|    0.824246|    0.012001|
|        5353|   -6.222903|   -8.223127|    0.824246|    0.012001|
|        5354|   -6.224529|   -8.229493|    0.824246|    0.012001|
|        5355|   -6.226330|   -8.235898|    0.824246|    0.012001|
|        5356|   -6.228340|   -8.242343|    0.824246|    0.012001|
|        5357|   -6.230589|   -8.248826|    0.824246|    0.012001|
|        5358|   -6.233101|   -8.255347|    0.824247|    0.012001|
|        5359|   -6.235896|   -8.261901|    0.824247|    0.012001|
|        5360|   -6.238991|   -8.268487|    0.824247|    0.012001|
|        5361|   -6.242394|   -8.275101|    0.824247|    0.012001|
|        5362|   -6.246112|   -8.281737|    0.824247|    0.012001|
|        5363|   -6.250144|   -8.288391|    0.824247|    0.012001|
|        5364|   -6.254486|   -8.295056|    0.824247|    0.012001|
|        5365|   -6.259129|   -8.301724|    0.824247|    0.012001|
|        5366|   -6.264056|   -8.308389|    0.824247|    0.012001|
|        5367|   -6.269249|   -8.315045|    0.824247|    0.012001|
|        5368|   -6.274683|   -8.321684|    0.824247|    0.012001|
|        5369|   -6.280328|   -8.328300|    0.824247|    0.012001|
|        5370|   -6.286151|   -8.334888|    0.824247|    0.012001|
|        5371|   -6.292114|   -8.341443|    0.824247|    0.012001|
|        5372|   -6.298174|   -8.347961|    0.824247|    0.012001|
|        5373|   -6.304287|   -8.354439|    0.824247|    0.012001|
|        5374|   -6.310405|   -8.360875|    0.824247|    0.012001|
|        5375|   -6.316480|   -8.367268|    0.824247|    0.012001|
|        5376|   -6.322461|   -8.373618|    0.824247|    0.012001|
|        5377|   -6.328299|   -8.379926|    0.824247|    0.012001|
|        5378|   -6.333946|   -8.386196|    0.824247|    0.012000|
|        5379|   -6.339356|   -8.392431|    0.824247|    0.012000|
|        5380|   -6.344489|   -8.398635|    0.824247|    0.012000|
|        5381|   -6.349309|   -8.404816|    0.824247|    0.012000|
|        5382|   -6.353785|   -8.410979|    0.824247|    0.012000|
|        5383|   -6.357894|   -8.417133|    0.824247|    0.012000|
|        5384|   -6.361621|   -8.423285|    0.824247|    0.012000|
|        5385|   -6.364958|   -8.429443|    0.824247|    0.012000|
|        5386|   -6.367903|   -8.435616|    0.824247|    0.012000|
|        5387|   -6.370463|   -8.441810|    0.824247|    0.012000|
|        5388|   -6.372650|   -8.448031|    0.824247|    0.012000|
|        5389|   -6.374482|   -8.454283|    0.824247|    0.012000|
|        5390|   -6.375982|   -8.460571|    0.824248|    0.012000|
|        5391|   -6.377173|   -8.466893|    0.824248|    0.011999|
|        5392|   -6.378083|   -8.473249|    0.824248|    0.011999|
|        5393|   -6.378740|   -8.479634|    0.824248|    0.011999|
|        5394|   -6.379173|   -8.486043|    0.824248|    0.011999|
|        5395|   -6.379407|   -8.492464|    0.824248|    0.011999|
|        5396|   -6.379468|   -8.498885|    0.824248|    0.011999|
|        5397|   -6.379379|   -8.505292|    0.824248|    0.011999|
|        5398|   -6.379161|   -8.511666|    0.824249|    0.011999|
|        5399|   -6.378832|   -8.517988|    0.824249|    0.011999|
|        5400|   -6.378407|   -8.524237|    0.824249|    0.011999|
|        5401|   -6.377899|   -8.530390|    0.824249|    0.011998|
|        5402|   -6.377319|   -8.536424|    0.824249|    0.011998|
|        5403|   -6.376674|   -8.542316|    0.824249|    0.011998|
|        5404|   -6.375972|   -8.548043|    0.824250|    0.011998|
|        5405|   -6.375217|   -8.553587|    0.824250|    0.011998|
|        5406|   -6.374414|   -8.558927|    0.824250|    0.011998|
|        5407|   -6.373565|   -8.564048|    0.824250|    0.011998|
|        5408|   -6.372672|   -8.568937|    0.824250|    0.011998|
|        5409|   -6.371739|   -8.573586|    0.824250|    0.011998|
|        5410|   -6.370767|   -8.577987|    0.824251|    0.011998|
|        5411|   -6.369759|   -8.582140|    0.824251|    0.011998|
|        5412|   -6.368717|   -8.586045|    0.824251|    0.011997|
|        5413|   -6.367643|   -8.589707|    0.824251|    0.011997|
|        5414|   -6.366543|   -8.593132|    0.824251|    0.011997|
|        5415|   -6.365419|   -8.596330|    0.824251|    0.011997|
|        5416|   -6.364277|   -8.599311|    0.824252|    0.011997|
|        5417|   -6.363122|   -8.602086|    0.824252|    0.011997|
|        5418|   -6.361959|   -8.604666|    0.824252|    0.011997|
|        5419|   -6.360796|   -8.607063|    0.824252|    0.011997|
|        5420|   -6.359640|   -8.609287|    0.824252|    0.011997|
|        5421|   -6.358498|   -8.611348|    0.824252|    0.011997|
|        5422|   -6.357381|   -8.613253|    0.824253|    0.011997|
|        5423|   -6.356298|   -8.615011|    0.824253|    0.011997|
|        5424|   -6.355259|   -8.616626|    0.824253|    0.011997|
|        5425|   -6.354275|   -8.618103|    0.824253|    0.011997|
|        5426|   -6.353361|   -8.619446|    0.824253|    0.011997|
|        5427|   -6.352527|   -8.620659|    0.824253|    0.011997|
|        5428|   -6.351788|   -8.621744|    0.824253|    0.011997|
|        5429|   -6.351156|   -8.622705|    0.824253|    0.011997|
|        5430|   -6.350647|   -8.623547|    0.824254|    0.011997|
|        5431|   -6.350277|   -8.624274|    0.824254|    0.011997|
|        5432|   -6.350059|   -8.624893|    0.824254|    0.011997|
|        5433|   -6.350010|   -8.625413|    0.824254|    0.011997|
|        5434|   -6.350145|   -8.625841|    0.824254|    0.011997|
|        5435|   -6.350479|   -8.626191|    0.824254|    0.011997|
|        5436|   -6.351027|   -8.626475|    0.824254|    0.011997|
|        5437|   -6.351803|   -8.626707|    0.824254|    0.011997|
|        5438|   -6.352820|   -8.626903|    0.824254|    0.011997|
|        5439|   -6.354091|   -8.627080|    0.824254|    0.011997|
|        5440|   -6.355626|   -8.627253|    0.824254|    0.011997|
|        5441|   -6.357433|   -8.627441|    0.824255|    0.011997|
|        5442|   -6.359521|   -8.627659|    0.824255|    0.011997|
|        5443|   -6.361893|   -8.627926|    0.824255|    0.011997|
|        5444|   -6.364553|   -8.628255|    0.824255|    0.011997|
|        5445|   -6.367502|   -8.628663|    0.824255|    0.011997|
|        5446|   -6.370736|   -8.629161|    0.824255|    0.011997|
|        5447|   -6.374250|   -8.629763|    0.824255|    0.011997|
|        5448|   -6.378035|   -8.630479|    0.824255|    0.011997|
|        5449|   -6.382081|   -8.631316|    0.824255|    0.011997|
|        5450|   -6.386370|   -8.632282|    0.824255|    0.011997|
|        5451|   -6.390886|   -8.633381|    0.824255|    0.011997|
|        5452|   -6.395605|   -8.634619|    0.824255|    0.011997|
|        5453|   -6.400501|   -8.635997|    0.824255|    0.011998|
|        5454|   -6.405546|   -8.637514|    0.824255|    0.011998|
|        5455|   -6.410705|   -8.639171|    0.824255|    0.011998|
|        5456|   -6.415943|   -8.640964|    0.824255|    0.011998|
|        5457|   -6.421220|   -8.642889|    0.824255|    0.011998|
|        5458|   -6.426495|   -8.644944|    0.824255|    0.011998|
|        5459|   -6.431724|   -8.647123|    0.824255|    0.011998|
|        5460|   -6.436862|   -8.649422|    0.824255|    0.011998|
|        5461|   -6.441862|   -8.651834|    0.824255|    0.011998|
|        5462|   -6.446681|   -8.654355|    0.824255|    0.011998|
|        5463|   -6.451273|   -8.656980|    0.824255|    0.011998|
|        5464|   -6.455596|   -8.659703|    0.824255|    0.011998|
|        5465|   -6.459613|   -8.662519|    0.824255|    0.011999|
|        5466|   -6.463288|   -8.665424|    0.824255|    0.011999|
|        5467|   -6.466593|   -8.668412|    0.824255|    0.011999|
|        5468|   -6.469505|   -8.671479|    0.824255|    0.011999|
|        5469|   -6.472008|   -8.674620|    0.824254|    0.011999|
|        5470|   -6.474094|   -8.677832|    0.824254|    0.011999|
|        5471|   -6.475760|   -8.681111|    0.824254|    0.011999|
|        5472|   -6.477015|   -8.684453|    0.824254|    0.011999|
|        5473|   -6.477870|   -8.687855|    0.824254|    0.011999|
|        5474|   -6.478342|   -8.691313|    0.824254|    0.011999|
|        5475|   -6.478458|   -8.694824|    0.824254|    0.011999|
|        5476|   -6.478247|   -8.698383|    0.824254|    0.011999|
|        5477|   -6.477741|   -8.701985|    0.824254|    0.011999|
|        5478|   -6.476977|   -8.705624|    0.824254|    0.011999|
|        5479|   -6.475992|   -8.709295|    0.824253|    0.011999|
|        5480|   -6.474826|   -8.712991|    0.824253|    0.012000|
|        5481|   -6.473518|   -8.716706|    0.824253|    0.012000|
|        5482|   -6.472106|   -8.720435|    0.824253|    0.012000|
|        5483|   -6.470628|   -8.724172|    0.824253|    0.012000|
|        5484|   -6.469119|   -8.727912|    0.824253|    0.012000|
|        5485|   -6.467612|   -8.731649|    0.824253|    0.012000|
|        5486|   -6.466139|   -8.735379|    0.824253|    0.012000|
|        5487|   -6.464727|   -8.739097|    0.824253|    0.012000|
|        5488|   -6.463403|   -8.742800|    0.824252|    0.012000|
|        5489|   -6.462189|   -8.746482|    0.824252|    0.012000|
|        5490|   -6.461105|   -8.750142|    0.824252|    0.012000|
|        5491|   -6.460170|   -8.753778|    0.824252|    0.012000|
|        5492|   -6.459398|   -8.757387|    0.824252|    0.012000|
|        5493|   -6.458802|   -8.760969|    0.824252|    0.012000|
|        5494|   -6.458392|   -8.764525|    0.824252|    0.012000|
|        5495|   -6.458177|   -8.768056|    0.824252|    0.012000|
|        5496|   -6.458164|   -8.771564|    0.824252|    0.012000|
|        5497|   -6.458356|   -8.775053|    0.824252|    0.012000|
|        5498|   -6.458758|   -8.778525|    0.824252|    0.012000|
|        5499|   -6.459370|   -8.781984|    0.824252|    0.011985|
+-----------------------------------------------------------------------+
|Fixed CL Mode (Finite Difference)       |Value                         |
+-----------------------------------------------------------------------+
|Delta CL / Delta AoA                    |0.251871                      |
|Delta CD / Delta CL                     |0.0205988                     |
|Delta CMz / Delta CL                    |0.0157598                     |
+-----------------------------------------------------------------------+
Writing Flow Meta-Data file: flow.meta

----------------------------- Solver Exit -------------------------------

Maximum number of iterations reached (ITER = 5500) before convergence.
+-----------------------------------------------------------------------+
|      Convergence Field     |     Value    |   Criterion  |  Converged |
+-----------------------------------------------------------------------+
|                    rms[Rho]|      -6.45937|         < -12|          No|
+-----------------------------------------------------------------------+
-------------------------------------------------------------------------

--------------------------- Finalizing Solver ---------------------------
Deleted CNumerics container.
Deleted CIntegration container.
Deleted CSolver container.
Deleted CIteration container.
Deleted CInterface container.
Deleted CGeometry container.
Deleted CFreeFormDefBox class.
Deleted CSurfaceMovement class.
Deleted CVolumetricMovement class.
Deleted CConfig container.
Deleted nInst container.
Deleted COutput class.
-------------------------------------------------------------------------

------------------------- Exit Success (SU2_CFD) ------------------------


-------------------------------------------------------------------------
|    ___ _   _ ___                                                      |
|   / __| | | |_  )   Release 8.0.0 "Harrier"                           |
|   \__ \ |_| |/ /                                                      |
|   |___/\___//___|   Suite (Solution Exporting Code)                   |
|                                                                       |
-------------------------------------------------------------------------
| SU2 Project Website: https://su2code.github.io                        |
|                                                                       |
| The SU2 Project is maintained by the SU2 Foundation                   |
| (http://su2foundation.org)                                            |
-------------------------------------------------------------------------
| Copyright 2012-2023, SU2 Contributors                                 |
|                                                                       |
| SU2 is free software; you can redistribute it and/or                  |
| modify it under the terms of the GNU Lesser General Public            |
| License as published by the Free Software Foundation; either          |
| version 2.1 of the License, or (at your option) any later version.    |
|                                                                       |
| SU2 is distributed in the hope that it will be useful,                |
| but WITHOUT ANY WARRANTY; without even the implied warranty of        |
| MERCHANTABILITY or FITNESS FOR A PARTICULAR PURPOSE. See the GNU      |
| Lesser General Public License for more details.                       |
|                                                                       |
| You should have received a copy of the GNU Lesser General Public      |
| License along with SU2. If not, see <http://www.gnu.org/licenses/>.   |
-------------------------------------------------------------------------

----------------- Physical Case Definition ( Zone 0 ) -------------------
Input mesh file name: mesh_RAE2822_turb_deform.su2

-------------------- Output Information ( Zone 0 ) ----------------------
The tabular file format is CSV (.csv).
Flow variables file name: flow.

------------- Config File Boundary Information ( Zone 0 ) ---------------
+-----------------------------------------------------------------------+
|                        Marker Type|                        Marker Name|
+-----------------------------------------------------------------------+
|                          Far-field|                           FARFIELD|
+-----------------------------------------------------------------------+
|                     Heat flux wall|                            AIRFOIL|
+-----------------------------------------------------------------------+
Two dimensional problem.
13937 grid points before partitioning.
22842 volume elements before partitioning.
2 surface markers.
192 boundary elements in index 0 (Marker = AIRFOIL).
40 boundary elements in index 1 (Marker = FARFIELD).
Executing the partitioning functions.
Building the graph adjacency structure.
Calling ParMETIS... graph partitioning complete (831 edge cuts).
Distributing ParMETIS coloring.
Rebalancing vertices.
Rebalancing volume element connectivity.
Rebalancing markers and surface elements.
14875 vertices including ghost points. 
23674 interior elements including halo cells. 
18780 triangles.
4894 quadrilaterals.
Establishing MPI communication patterns.
Identify vertices.
Storing a mapping from global to local point index.

------------------------- Solution Postprocessing -----------------------
Reading and storing the solution from restart_flow.
Volume output fields: COORDINATES, SOLUTION
  Info: Ignoring the following screen output fields:
  RMS_DENSITY, RMS_NU_TILDE, LIFT, DRAG
Screen output fields: INNER_ITER
  Info: Ignoring the following history output groups:
  RMS_RES, AERO_COEFF
History output group(s): ITER
Warning: No (valid) fields chosen for convergence monitoring. Convergence monitoring inactive.
Warning: No (valid) fields chosen for time convergence monitoring. Time convergence monitoring inactive.
|Paraview                           |flow.vtu                           |
|Paraview surface                   |surface_flow.vtu                   |
|CSV file                           |surface_flow.csv                   |

------------------------- Finalize Solver -------------------------
Deleted CGeometry container.
Deleted CSolver class.
Deleted CConfig container.
Deleted COutput class.

Completed in 0.017238 seconds on 6 cores.

------------------------- Exit Success (SU2_SOL) ------------------------

