
-------------------------------------------------------------------------
|    ___ _   _ ___                                                      |
|   / __| | | |_  )   Release 8.0.0 "Harrier"                           |
|   \__ \ |_| |/ /                                                      |
|   |___/\___//___|   Suite (Computational Fluid Dynamics Code)         |
|                                                                       |
-------------------------------------------------------------------------
| SU2 Project Website: https://su2code.github.io                        |
|                                                                       |
| The SU2 Project is maintained by the SU2 Foundation                   |
| (http://su2foundation.org)                                            |
-------------------------------------------------------------------------
| Copyright 2012-2023, SU2 Contributors                                 |
|                                                                       |
| SU2 is free software; you can redistribute it and/or                  |
| modify it under the terms of the GNU Lesser General Public            |
| License as published by the Free Software Foundation; either          |
| version 2.1 of the License, or (at your option) any later version.    |
|                                                                       |
| SU2 is distributed in the hope that it will be useful,                |
| but WITHOUT ANY WARRANTY; without even the implied warranty of        |
| MERCHANTABILITY or FITNESS FOR A PARTICULAR PURPOSE. See the GNU      |
| Lesser General Public License for more details.                       |
|                                                                       |
| You should have received a copy of the GNU Lesser General Public      |
| License along with SU2. If not, see <http://www.gnu.org/licenses/>.   |
-------------------------------------------------------------------------

Parsing config file for zone 0

----------------- Physical Case Definition ( Zone 0 ) -------------------
Compressible RANS equations.
Turbulence model: Spalart-Allmaras-noft2
Hybrid RANS/LES: No Hybrid RANS/LES
Mach number: 0.734.
Angle of attack (AoA): 2.31 deg, and angle of sideslip (AoS): 0 deg.
Reynolds number: 6.5e+06. Reference length 1.
Fixed CL mode, target value: 0.824.
Reading and writing binary SU2 native restart files.
Read flow solution from: solution_flow.dat.
Dimensional simulation.
The reference area is 1 m^2.
The semi-span will be computed using the max y(3D) value.
The reference length is 1 m.
Reference origin for moment evaluation is (0.25, 0, 0).
Surface(s) where the force coefficients are evaluated: AIRFOIL.

Surface(s) plotted in the output file: AIRFOIL.
Surface(s) affected by the design variables: AIRFOIL.
Input mesh file name: mesh_RAE2822_turb_deform.su2

--------------- Space Numerical Integration ( Zone 0 ) ------------------
Jameson-Schmidt-Turkel scheme (2nd order in space) for the flow inviscid terms.
JST viscous coefficients (2nd & 4th): 0.5, 0.02.
The method includes a grid stretching correction (p = 0.3).
Scalar upwind solver for the turbulence model.
First order integration in space.
Average of gradients with correction (viscous flow terms).
Average of gradients with correction (viscous turbulence terms).
Gradient for viscous and source terms: inverse-distance weighted Least-Squares.

--------------- Time Numerical Integration  ( Zone 0 ) ------------------
Local time stepping (steady state simulation).
Euler implicit method for the flow equations.
FGMRES is used for solving the linear system.
Using a ILU(0) preconditioning.
Convergence criteria of the linear solver: 1e-06.
Max number of linear iterations: 10.
No CFL adaptation.
Courant-Friedrichs-Lewy number:       10
Euler implicit time integration for the turbulence model.

------------------ Convergence Criteria  ( Zone 0 ) ---------------------
Maximum number of solver subiterations: 5500.
Begin convergence monitoring at iteration 10.
Residual minimum value: 1e-12.
Cauchy series min. value: 1e-06.
Number of Cauchy elements: 100.
Begin windowed time average at iteration 0.

-------------------- Output Information ( Zone 0 ) ----------------------
File writing frequency: 
+------------------------------------+
|                     File| Frequency|
+------------------------------------+
|                  RESTART|     10000|
|                 PARAVIEW|     10000|
|         SURFACE_PARAVIEW|     10000|
|              SURFACE_CSV|     10000|
+------------------------------------+
Writing the convergence history file every 1 inner iterations.
Writing the screen convergence history every 1 inner iterations.
The tabular file format is CSV (.csv).
Convergence history file name: history_direct.
Forces breakdown file name: forces_breakdown.dat.
Surface file name: surface_flow.
Volume file name: flow.
Restart file name: restart_flow.dat.

------------- Config File Boundary Information ( Zone 0 ) ---------------
+-----------------------------------------------------------------------+
|                        Marker Type|                        Marker Name|
+-----------------------------------------------------------------------+
|                          Far-field|                           FARFIELD|
+-----------------------------------------------------------------------+
|                     Heat flux wall|                            AIRFOIL|
+-----------------------------------------------------------------------+

-------------------- Output Preprocessing ( Zone 0 ) --------------------

WARNING: SURFACE_PRESSURE_DROP can only be computed for at least 2 surfaces (outlet, inlet, ...)

Screen output fields: INNER_ITER, RMS_DENSITY, RMS_NU_TILDE, LIFT, DRAG
History output group(s): ITER, RMS_RES, AERO_COEFF
Convergence field(s): RMS_DENSITY
Warning: No (valid) fields chosen for time convergence monitoring. Time convergence monitoring inactive.
Volume output fields: COORDINATES, SOLUTION, PRIMITIVE

------------------- Geometry Preprocessing ( Zone 0 ) -------------------
Two dimensional problem.
13937 grid points before partitioning.
22842 volume elements before partitioning.
2 surface markers.
192 boundary elements in index 0 (Marker = AIRFOIL).
40 boundary elements in index 1 (Marker = FARFIELD).
Executing the partitioning functions.
Building the graph adjacency structure.
Calling ParMETIS... graph partitioning complete (831 edge cuts).
Distributing ParMETIS coloring.
Rebalancing vertices.
Rebalancing volume element connectivity.
Rebalancing markers and surface elements.
14875 vertices including ghost points. 
23674 interior elements including halo cells. 
18780 triangles.
4894 quadrilaterals.
Establishing MPI communication patterns.
Setting point connectivity.
Renumbering points (Reverse Cuthill McKee Ordering).
Recomputing point connectivity.
Setting element connectivity.
Checking the numerical grid orientation.
All volume elements are correctly orientend.
All surface elements are correctly orientend.
Identifying edges and vertices.
Setting the control volume structure.
Area of the computational grid: 32209.9.
Searching for the closest normal neighbors to the surfaces.
Storing a mapping from global to local point index.
Compute the surface curvature.
Max K: 173.804. Mean K: 7.82826. Standard deviation K: 23.9446.
Checking for periodicity.
Computing mesh quality statistics for the dual control volumes.
+--------------------------------------------------------------+
|           Mesh Quality Metric|        Minimum|        Maximum|
+--------------------------------------------------------------+
|    Orthogonality Angle (deg.)|        75.1423|         89.999|
|     CV Face Area Aspect Ratio|        1.00371|        3358.52|
|           CV Sub-Volume Ratio|        1.00046|         1215.1|
+--------------------------------------------------------------+
Finding max control volume width.
Communicating number of neighbors.
Wetted area = 2.02189 m.
Area projection in the x-plane = 0.124804 m, y-plane = 0.995873 m.
Max. coordinate in the x-direction = 1 m, y-direction = 0.062067 m.
Min. coordinate in the x-direction = 0 m, y-direction = -0.0599185 m.
Computing wall distances.

-------------------- Solver Preprocessing ( Zone 0 ) --------------------
WARNING: AoA in the solution file (2.79035 deg.) +
         AoA offset in mesh file (0 deg.) = 2.79035 deg.
WARNING: SU2 will use the dCD/dCL provided in the direct solution file: 0.0173826.
WARNING: SU2 will use the dCMz/dCL provided in the direct solution file: -0.00113635.
Viscous flow: Computing pressure using the ideal gas law
based on the free-stream temperature and a density computed
from the Reynolds number.
Force coefficients computed using free-stream values.

-- Models:
+------------------------------------------------------------------------------+
|          Viscosity Model|        Conductivity Model|              Fluid Model|
+------------------------------------------------------------------------------+
|               SUTHERLAND|          CONSTANT_PRANDTL|             STANDARD_AIR|
+------------------------------------------------------------------------------+
-- Fluid properties:
+------------------------------------------------------------------------------+
|                  Name|    Dim. value|    Ref. value|      Unit|Non-dim. value|
+------------------------------------------------------------------------------+
|        Ref. Viscosity|     1.716e-05|             1|   N.s/m^2|     1.716e-05|
|      Sutherland Temp.|        273.15|             1|         K|        273.15|
|     Sutherland Const.|         110.4|             1|         K|         110.4|
+------------------------------------------------------------------------------+
|        Prandtl (Lam.)|             -|             -|         -|          0.71|
|       Prandtl (Turb.)|             -|             -|         -|           0.9|
+------------------------------------------------------------------------------+
|          Gas Constant|       287.058|             1|  N.m/kg.K|       287.058|
|      Spec. Heat Ratio|             -|             -|         -|           1.4|
+------------------------------------------------------------------------------+
-- Initial and free-stream conditions:
+------------------------------------------------------------------------------+
|                  Name|    Dim. value|    Ref. value|      Unit|Non-dim. value|
+------------------------------------------------------------------------------+
|       Static Pressure|         38515|             1|        Pa|         38515|
|               Density|      0.465631|             1|    kg/m^3|      0.465631|
|           Temperature|        288.15|             1|         K|        288.15|
|          Total Energy|        237984|             1|   m^2/s^2|        237984|
|            Velocity-X|       249.482|             1|       m/s|       249.482|
|            Velocity-Y|       12.1596|             1|       m/s|       12.1596|
|    Velocity Magnitude|       249.778|             1|       m/s|       249.778|
+------------------------------------------------------------------------------+
|             Viscosity|    1.7893e-05|             1|   N.s/m^2|    1.7893e-05|
|          Conductivity|             -|             1|   W/m^2.K|             -|
|     Turb. Kin. Energy|       233.959|             1|   m^2/s^2|       233.959|
|     Spec. Dissipation|        608834|             1|       1/s|        608834|
+------------------------------------------------------------------------------+
|           Mach Number|             -|             -|         -|         0.734|
|       Reynolds Number|             -|             -|         -|       6.5e+06|
+------------------------------------------------------------------------------+
Initialize Jacobian structure (Navier-Stokes). MG level: 0.
Initialize Jacobian structure (SA model).

------------------- Numerics Preprocessing ( Zone 0 ) -------------------

----------------- Integration Preprocessing ( Zone 0 ) ------------------

------------------- Iteration Preprocessing ( Zone 0 ) ------------------
Euler/Navier-Stokes/RANS fluid iteration.

------------------------------ Begin Solver -----------------------------

Simulation Run using the Single-zone Driver
WARNING: SU2 was not compiled for an AVX-capable architecture. Performance could be better,
         see https://su2code.github.io/docs_v7/Build-SU2-Linux-MacOS/#compiler-optimizations
+----------------------------------------------------------------+
|  Inner_Iter|    rms[Rho]|     rms[nu]|          CL|          CD|
+----------------------------------------------------------------+
|           0|   -5.341483|   -6.587401|    0.824007|    0.011972|
|           1|   -5.395735|   -6.682727|    0.824006|    0.011968|
|           2|   -5.452333|   -6.794301|    0.824001|    0.011968|
|           3|   -5.495437|   -6.914525|    0.823995|    0.011969|
|           4|   -5.525922|   -7.032656|    0.823990|    0.011970|
|           5|   -5.545786|   -7.133827|    0.823987|    0.011970|
|           6|   -5.556839|   -7.204350|    0.823985|    0.011970|
|           7|   -5.561365|   -7.239641|    0.823984|    0.011969|
|           8|   -5.561293|   -7.245431|    0.823985|    0.011968|
|           9|   -5.557504|   -7.232504|    0.823987|    0.011967|
|          10|   -5.550126|   -7.211374|    0.823990|    0.011967|
|          11|   -5.539307|   -7.189668|    0.823994|    0.011968|
|          12|   -5.525697|   -7.171931|    0.823999|    0.011969|
|          13|   -5.510415|   -7.160443|    0.824004|    0.011970|
|          14|   -5.494791|   -7.155842|    0.824010|    0.011972|
|          15|   -5.480120|   -7.157193|    0.824015|    0.011975|
|          16|   -5.467480|   -7.161799|    0.824020|    0.011977|
|          17|   -5.457589|   -7.165321|    0.824024|    0.011980|
|          18|   -5.450699|   -7.163024|    0.824026|    0.011983|
|          19|   -5.446563|   -7.152136|    0.824028|    0.011985|
|          20|   -5.444507|   -7.133595|    0.824029|    0.011988|
|          21|   -5.443610|   -7.111303|    0.824029|    0.011990|
|          22|   -5.442948|   -7.089803|    0.824028|    0.011993|
|          23|   -5.441822|   -7.072549|    0.824026|    0.011994|
|          24|   -5.439884|   -7.061459|    0.824023|    0.011996|
|          25|   -5.437121|   -7.057162|    0.824020|    0.011997|
|          26|   -5.433733|   -7.059378|    0.824017|    0.011999|
|          27|   -5.429983|   -7.067200|    0.824014|    0.012000|
|          28|   -5.426101|   -7.079283|    0.824011|    0.012000|
|          29|   -5.422246|   -7.093981|    0.824008|    0.012001|
|          30|   -5.418513|   -7.109480|    0.824005|    0.012001|
|          31|   -5.414951|   -7.124006|    0.824002|    0.012002|
|          32|   -5.411588|   -7.136063|    0.824000|    0.012002|
|          33|   -5.408438|   -7.144662|    0.823998|    0.012002|
|          34|   -5.405499|   -7.149441|    0.823996|    0.012003|
|          35|   -5.402759|   -7.150604|    0.823994|    0.012003|
|          36|   -5.400192|   -7.148734|    0.823991|    0.012003|
|          37|   -5.397770|   -7.144555|    0.823989|    0.012003|
|          38|   -5.395462|   -7.138759|    0.823987|    0.012003|
|          39|   -5.393245|   -7.131915|    0.823985|    0.012003|
|          40|   -5.391104|   -7.124462|    0.823983|    0.012003|
|          41|   -5.389031|   -7.116747|    0.823980|    0.012003|
|          42|   -5.387027|   -7.109074|    0.823977|    0.012003|
|          43|   -5.385093|   -7.101742|    0.823974|    0.012003|
|          44|   -5.383231|   -7.095062|    0.823971|    0.012003|
|          45|   -5.381440|   -7.089349|    0.823968|    0.012003|
|          46|   -5.379708|   -7.084899|    0.823965|    0.012003|
|          47|   -5.378020|   -7.081962|    0.823962|    0.012003|
|          48|   -5.376355|   -7.080712|    0.823959|    0.012003|
|          49|   -5.374688|   -7.081231|    0.823956|    0.012003|
|          50|   -5.373002|   -7.083491|    0.823953|    0.012003|
|          51|   -5.371285|   -7.087357|    0.823950|    0.012002|
|          52|   -5.369536|   -7.092596|    0.823948|    0.012002|
|          53|   -5.367772|   -7.098892|    0.823946|    0.012002|
|          54|   -5.366023|   -7.105877|    0.823944|    0.012002|
|          55|   -5.364330|   -7.113163|    0.823942|    0.012002|
|          56|   -5.362746|   -7.120381|    0.823941|    0.012001|
|          57|   -5.361324|   -7.127215|    0.823940|    0.012001|
|          58|   -5.360115|   -7.133427|    0.823940|    0.012001|
|          59|   -5.359159|   -7.138873|    0.823939|    0.012001|
|          60|   -5.358484|   -7.143498|    0.823939|    0.012000|
|          61|   -5.358098|   -7.147329|    0.823939|    0.012000|
|          62|   -5.357993|   -7.150454|    0.823939|    0.012000|
|          63|   -5.358150|   -7.153006|    0.823939|    0.012000|
|          64|   -5.358533|   -7.155141|    0.823939|    0.011999|
|          65|   -5.359109|   -7.157021|    0.823940|    0.011999|
|          66|   -5.359842|   -7.158803|    0.823940|    0.011999|
|          67|   -5.360709|   -7.160623|    0.823940|    0.011998|
|          68|   -5.361692|   -7.162585|    0.823941|    0.011998|
|          69|   -5.362788|   -7.164759|    0.823941|    0.011998|
|          70|   -5.364000|   -7.167169|    0.823941|    0.011998|
|          71|   -5.365337|   -7.169799|    0.823942|    0.011997|
|          72|   -5.366810|   -7.172600|    0.823942|    0.011997|
|          73|   -5.368425|   -7.175498|    0.823942|    0.011997|
|          74|   -5.370186|   -7.178411|    0.823943|    0.011997|
|          75|   -5.372087|   -7.181263|    0.823943|    0.011996|
|          76|   -5.374120|   -7.184000|    0.823943|    0.011996|
|          77|   -5.376274|   -7.186596|    0.823944|    0.011996|
|          78|   -5.378538|   -7.189061|    0.823944|    0.011996|
|          79|   -5.380905|   -7.191432|    0.823944|    0.011996|
|          80|   -5.383373|   -7.193776|    0.823944|    0.011996|
|          81|   -5.385947|   -7.196166|    0.823944|    0.011996|
|          82|   -5.388631|   -7.198683|    0.823944|    0.011996|
|          83|   -5.391435|   -7.201399|    0.823944|    0.011996|
|          84|   -5.394362|   -7.204376|    0.823944|    0.011996|
|          85|   -5.397412|   -7.207659|    0.823944|    0.011996|
|          86|   -5.400574|   -7.211279|    0.823944|    0.011996|
|          87|   -5.403828|   -7.215250|    0.823944|    0.011996|
|          88|   -5.407143|   -7.219576|    0.823944|    0.011996|
|          89|   -5.410479|   -7.224252|    0.823944|    0.011996|
|          90|   -5.413790|   -7.229265|    0.823944|    0.011996|
|          91|   -5.417031|   -7.234604|    0.823943|    0.011996|
|          92|   -5.420155|   -7.240253|    0.823943|    0.011996|
|          93|   -5.423128|   -7.246197|    0.823943|    0.011996|
|          94|   -5.425920|   -7.252427|    0.823943|    0.011996|
|          95|   -5.428517|   -7.258932|    0.823943|    0.011996|
|          96|   -5.430917|   -7.265704|    0.823944|    0.011996|
|          97|   -5.433132|   -7.272736|    0.823944|    0.011996|
|          98|   -5.435183|   -7.280016|    0.823944|    0.011997|
|          99|   -5.437101|   -7.287532|    0.823945|    0.011997|
|         100|   -5.438925|   -7.295268|    0.823945|    0.011997|
|         101|   -5.440693|   -7.303204|    0.823946|    0.012001|
+-----------------------------------------------------------------------+
|Fixed CL Mode                           |Value                         |
+-----------------------------------------------------------------------+
|Current CL                              |0.823946                      |
|Target CL                               |0.824                         |
|Previous AOA                            |2.79035                       |
|Changed AoA by                          |0.000274891                   |
+-----------------------------------------------------------------------+
+----------------------------------------------------------------+
|  Inner_Iter|    rms[Rho]|     rms[nu]|          CL|          CD|
+----------------------------------------------------------------+
|         102|   -3.754196|   -7.294653|    0.823946|    0.012001|
|         103|   -4.139489|   -7.311071|    0.823947|    0.012002|
|         104|   -4.386713|   -7.321696|    0.823948|    0.012002|
|         105|   -4.467539|   -7.331231|    0.823949|    0.012002|
|         106|   -4.521553|   -7.340390|    0.823949|    0.012003|
|         107|   -4.590818|   -7.349304|    0.823950|    0.012003|
|         108|   -4.675618|   -7.357975|    0.823951|    0.012004|
|         109|   -4.762366|   -7.366384|    0.823952|    0.012004|
|         110|   -4.834089|   -7.374503|    0.823953|    0.012005|
|         111|   -4.883442|   -7.382299|    0.823954|    0.012005|
|         112|   -4.913857|   -7.389745|    0.823954|    0.012006|
|         113|   -4.930537|   -7.396842|    0.823955|    0.012006|
|         114|   -4.937797|   -7.403609|    0.823955|    0.012007|
|         115|   -4.940937|   -7.410060|    0.823956|    0.012007|
|         116|   -4.945517|   -7.416192|    0.823956|    0.012008|
|         117|   -4.955138|   -7.421992|    0.823956|    0.012009|
|         118|   -4.970454|   -7.427453|    0.823956|    0.012009|
|         119|   -4.989660|   -7.432576|    0.823956|    0.012010|
|         120|   -5.009837|   -7.437377|    0.823956|    0.012010|
|         121|   -5.028599|   -7.441875|    0.823956|    0.012011|
|         122|   -5.045207|   -7.446092|    0.823956|    0.012011|
|         123|   -5.060443|   -7.450049|    0.823956|    0.012012|
|         124|   -5.075554|   -7.453771|    0.823955|    0.012012|
|         125|   -5.091286|   -7.457287|    0.823955|    0.012012|
|         126|   -5.107560|   -7.460629|    0.823954|    0.012013|
|         127|   -5.123687|   -7.463829|    0.823954|    0.012013|
|         128|   -5.138754|   -7.466922|    0.823953|    0.012014|
|         129|   -5.151933|   -7.469942|    0.823953|    0.012014|
|         130|   -5.162657|   -7.472921|    0.823953|    0.012014|
|         131|   -5.170730|   -7.475885|    0.823952|    0.012015|
|         132|   -5.176386|   -7.478865|    0.823952|    0.012015|
|         133|   -5.180260|   -7.481880|    0.823952|    0.012016|
|         134|   -5.183238|   -7.484953|    0.823952|    0.012016|
|         135|   -5.186225|   -7.488103|    0.823951|    0.012016|
|         136|   -5.189939|   -7.491343|    0.823951|    0.012017|
|         137|   -5.194790|   -7.494683|    0.823951|    0.012017|
|         138|   -5.200842|   -7.498127|    0.823951|    0.012018|
|         139|   -5.207844|   -7.501679|    0.823952|    0.012018|
|         140|   -5.215293|   -7.505336|    0.823952|    0.012019|
|         141|   -5.222550|   -7.509091|    0.823952|    0.012019|
|         142|   -5.228980|   -7.512939|    0.823952|    0.012019|
|         143|   -5.234118|   -7.516870|    0.823953|    0.012020|
|         144|   -5.237799|   -7.520872|    0.823953|    0.012020|
|         145|   -5.240202|   -7.524934|    0.823954|    0.012021|
|         146|   -5.241772|   -7.529044|    0.823954|    0.012021|
|         147|   -5.243083|   -7.533190|    0.823955|    0.012022|
|         148|   -5.244676|   -7.537359|    0.823955|    0.012022|
|         149|   -5.246950|   -7.541540|    0.823956|    0.012023|
|         150|   -5.250099|   -7.545730|    0.823957|    0.012023|
|         151|   -5.254123|   -7.549923|    0.823957|    0.012023|
|         152|   -5.258861|   -7.554122|    0.823958|    0.012024|
|         153|   -5.264059|   -7.558327|    0.823959|    0.012024|
|         154|   -5.269438|   -7.562543|    0.823960|    0.012025|
|         155|   -5.274754|   -7.566776|    0.823961|    0.012025|
|         156|   -5.279840|   -7.571032|    0.823962|    0.012025|
|         157|   -5.284624|   -7.575314|    0.823963|    0.012026|
|         158|   -5.289125|   -7.579625|    0.823964|    0.012026|
|         159|   -5.293421|   -7.583966|    0.823965|    0.012026|
|         160|   -5.297621|   -7.588334|    0.823967|    0.012026|
|         161|   -5.301830|   -7.592725|    0.823968|    0.012027|
|         162|   -5.306135|   -7.597132|    0.823969|    0.012027|
|         163|   -5.310585|   -7.601545|    0.823971|    0.012027|
|         164|   -5.315203|   -7.605949|    0.823972|    0.012027|
|         165|   -5.319984|   -7.610329|    0.823974|    0.012027|
|         166|   -5.324910|   -7.614667|    0.823975|    0.012027|
|         167|   -5.329955|   -7.618950|    0.823977|    0.012028|
|         168|   -5.335096|   -7.623162|    0.823978|    0.012028|
|         169|   -5.340317|   -7.627282|    0.823980|    0.012028|
|         170|   -5.345603|   -7.631287|    0.823982|    0.012028|
|         171|   -5.350943|   -7.635152|    0.823983|    0.012028|
|         172|   -5.356328|   -7.638846|    0.823985|    0.012028|
|         173|   -5.361743|   -7.642338|    0.823986|    0.012028|
|         174|   -5.367170|   -7.645594|    0.823988|    0.012028|
|         175|   -5.372584|   -7.648578|    0.823989|    0.012028|
|         176|   -5.377953|   -7.651254|    0.823991|    0.012028|
|         177|   -5.383238|   -7.653589|    0.823992|    0.012028|
|         178|   -5.388396|   -7.655550|    0.823993|    0.012028|
|         179|   -5.393380|   -7.657107|    0.823994|    0.012028|
|         180|   -5.398142|   -7.658237|    0.823995|    0.012028|
|         181|   -5.402631|   -7.658927|    0.823996|    0.012028|
|         182|   -5.406801|   -7.659171|    0.823997|    0.012027|
|         183|   -5.410609|   -7.658975|    0.823998|    0.012027|
|         184|   -5.414022|   -7.658353|    0.823998|    0.012027|
|         185|   -5.417014|   -7.657332|    0.823999|    0.012027|
|         186|   -5.419574|   -7.655953|    0.823999|    0.012027|
|         187|   -5.421704|   -7.654264|    0.823999|    0.012027|
|         188|   -5.423421|   -7.652322|    0.823999|    0.012026|
|         189|   -5.424759|   -7.650189|    0.823999|    0.012026|
|         190|   -5.425765|   -7.647929|    0.823999|    0.012026|
|         191|   -5.426499|   -7.645606|    0.823998|    0.012026|
|         192|   -5.427033|   -7.643279|    0.823998|    0.012025|
|         193|   -5.427444|   -7.640985|    0.823997|    0.012025|
|         194|   -5.427816|   -7.638781|    0.823997|    0.012025|
|         195|   -5.428235|   -7.636721|    0.823996|    0.012025|
|         196|   -5.428785|   -7.634848|    0.823995|    0.012024|
|         197|   -5.429549|   -7.633194|    0.823994|    0.012024|
|         198|   -5.430603|   -7.631782|    0.823993|    0.012024|
|         199|   -5.432018|   -7.630628|    0.823993|    0.012023|
|         200|   -5.433857|   -7.629736|    0.823992|    0.012023|
|         201|   -5.436174|   -7.629104|    0.823991|    0.012023|
+-----------------------------------------------------------------------+
|Fixed CL Mode                           |Value                         |
+-----------------------------------------------------------------------+
|Current CL                              |0.823991                      |
|Target CL                               |0.824                         |
|Previous AOA                            |2.79062                       |
|Changed AoA by                          |4.20996e-05                   |
+-----------------------------------------------------------------------+
+----------------------------------------------------------------+
|  Inner_Iter|    rms[Rho]|     rms[nu]|          CL|          CD|
+----------------------------------------------------------------+
|         202|   -4.564738|   -7.626897|    0.823990|    0.012023|
|         203|   -4.926240|   -7.627632|    0.823989|    0.012023|
|         204|   -5.124344|   -7.627942|    0.823988|    0.012022|
|         205|   -5.183857|   -7.628323|    0.823987|    0.012022|
|         206|   -5.224827|   -7.628821|    0.823986|    0.012022|
|         207|   -5.272166|   -7.629416|    0.823985|    0.012022|
|         208|   -5.322416|   -7.630072|    0.823984|    0.012021|
|         209|   -5.366771|   -7.630753|    0.823983|    0.012021|
|         210|   -5.400135|   -7.631425|    0.823983|    0.012021|
|         211|   -5.423792|   -7.632056|    0.823982|    0.012020|
|         212|   -5.441163|   -7.632622|    0.823981|    0.012020|
|         213|   -5.454372|   -7.633106|    0.823981|    0.012020|
|         214|   -5.464512|   -7.633500|    0.823980|    0.012020|
|         215|   -5.472803|   -7.633790|    0.823980|    0.012020|
|         216|   -5.480726|   -7.633967|    0.823979|    0.012019|
|         217|   -5.489413|   -7.634025|    0.823979|    0.012019|
|         218|   -5.499189|   -7.633965|    0.823979|    0.012019|
|         219|   -5.509636|   -7.633792|    0.823979|    0.012019|
|         220|   -5.520028|   -7.633524|    0.823979|    0.012019|
|         221|   -5.529807|   -7.633181|    0.823979|    0.012019|
|         222|   -5.538795|   -7.632780|    0.823979|    0.012019|
|         223|   -5.547092|   -7.632332|    0.823979|    0.012018|
|         224|   -5.554835|   -7.631845|    0.823979|    0.012018|
|         225|   -5.562025|   -7.631354|    0.823979|    0.012018|
|         226|   -5.568521|   -7.630881|    0.823980|    0.012018|
|         227|   -5.574141|   -7.630447|    0.823980|    0.012018|
|         228|   -5.578770|   -7.630066|    0.823981|    0.012018|
|         229|   -5.582411|   -7.629739|    0.823981|    0.012018|
|         230|   -5.585182|   -7.629487|    0.823982|    0.012018|
|         231|   -5.587282|   -7.629325|    0.823983|    0.012018|
|         232|   -5.588963|   -7.629272|    0.823983|    0.012018|
|         233|   -5.590495|   -7.629336|    0.823984|    0.012018|
|         234|   -5.592138|   -7.629530|    0.823985|    0.012019|
|         235|   -5.594106|   -7.629863|    0.823986|    0.012019|
|         236|   -5.596551|   -7.630332|    0.823987|    0.012019|
|         237|   -5.599556|   -7.630937|    0.823988|    0.012019|
|         238|   -5.603133|   -7.631679|    0.823989|    0.012019|
|         239|   -5.607244|   -7.632555|    0.823990|    0.012019|
|         240|   -5.611816|   -7.633561|    0.823991|    0.012019|
|         241|   -5.616769|   -7.634690|    0.823993|    0.012019|
|         242|   -5.622026|   -7.635935|    0.823994|    0.012020|
|         243|   -5.627534|   -7.637291|    0.823995|    0.012020|
|         244|   -5.633278|   -7.638754|    0.823996|    0.012020|
|         245|   -5.639276|   -7.640322|    0.823998|    0.012020|
|         246|   -5.645576|   -7.641993|    0.823999|    0.012020|
|         247|   -5.652234|   -7.643765|    0.824000|    0.012021|
|         248|   -5.659296|   -7.645636|    0.824001|    0.012021|
|         249|   -5.666785|   -7.647604|    0.824003|    0.012021|
|         250|   -5.674688|   -7.649668|    0.824004|    0.012021|
|         251|   -5.682955|   -7.651819|    0.824005|    0.012021|
|         252|   -5.691505|   -7.654043|    0.824006|    0.012022|
|         253|   -5.700236|   -7.656344|    0.824008|    0.012022|
|         254|   -5.709037|   -7.658725|    0.824009|    0.012022|
|         255|   -5.717803|   -7.661192|    0.824010|    0.012022|
|         256|   -5.726441|   -7.663749|    0.824011|    0.012022|
|         257|   -5.734876|   -7.666397|    0.824012|    0.012023|
|         258|   -5.743051|   -7.669142|    0.824013|    0.012023|
|         259|   -5.750927|   -7.671984|    0.824014|    0.012023|
|         260|   -5.758473|   -7.674923|    0.824015|    0.012023|
|         261|   -5.765665|   -7.677963|    0.824015|    0.012023|
|         262|   -5.772480|   -7.681108|    0.824016|    0.012023|
|         263|   -5.778896|   -7.684357|    0.824017|    0.012024|
|         264|   -5.784890|   -7.687717|    0.824018|    0.012024|
|         265|   -5.790441|   -7.691196|    0.824018|    0.012024|
|         266|   -5.795532|   -7.694804|    0.824019|    0.012024|
|         267|   -5.800148|   -7.698543|    0.824019|    0.012024|
|         268|   -5.804282|   -7.702411|    0.824020|    0.012024|
|         269|   -5.807936|   -7.706411|    0.824020|    0.012024|
|         270|   -5.811115|   -7.710542|    0.824021|    0.012024|
|         271|   -5.813832|   -7.714803|    0.824021|    0.012024|
|         272|   -5.816105|   -7.719197|    0.824021|    0.012024|
|         273|   -5.817954|   -7.723733|    0.824022|    0.012024|
|         274|   -5.819406|   -7.728411|    0.824022|    0.012024|
|         275|   -5.820485|   -7.733231|    0.824022|    0.012024|
|         276|   -5.821223|   -7.738194|    0.824022|    0.012024|
|         277|   -5.821651|   -7.743301|    0.824023|    0.012024|
|         278|   -5.821804|   -7.748567|    0.824023|    0.012024|
|         279|   -5.821716|   -7.753988|    0.824023|    0.012024|
|         280|   -5.821427|   -7.759562|    0.824023|    0.012024|
|         281|   -5.820971|   -7.765290|    0.824023|    0.012024|
|         282|   -5.820385|   -7.771171|    0.824023|    0.012024|
|         283|   -5.819704|   -7.777205|    0.824023|    0.012024|
|         284|   -5.818962|   -7.783395|    0.824023|    0.012024|
|         285|   -5.818189|   -7.789739|    0.824023|    0.012024|
|         286|   -5.817413|   -7.796238|    0.824023|    0.012024|
|         287|   -5.816658|   -7.802893|    0.824023|    0.012024|
|         288|   -5.815947|   -7.809701|    0.824023|    0.012024|
|         289|   -5.815298|   -7.816656|    0.824023|    0.012024|
|         290|   -5.814724|   -7.823745|    0.824023|    0.012023|
|         291|   -5.814236|   -7.830958|    0.824023|    0.012023|
|         292|   -5.813844|   -7.838283|    0.824023|    0.012023|
|         293|   -5.813551|   -7.845707|    0.824023|    0.012023|
|         294|   -5.813361|   -7.853216|    0.824023|    0.012023|
|         295|   -5.813274|   -7.860784|    0.824023|    0.012023|
|         296|   -5.813290|   -7.868384|    0.824022|    0.012023|
|         297|   -5.813406|   -7.875991|    0.824022|    0.012023|
|         298|   -5.813621|   -7.883578|    0.824022|    0.012022|
|         299|   -5.813932|   -7.891115|    0.824022|    0.012022|
|         300|   -5.814336|   -7.898583|    0.824022|    0.012022|
|         301|   -5.814830|   -7.905955|    0.824022|    0.012020|
+-----------------------------------------------------------------------+
|Fixed CL Mode                           |Value                         |
+-----------------------------------------------------------------------+
|Current CL                              |0.824022                      |
|Target CL                               |0.824                         |
|Previous AOA                            |2.79067                       |
|Changed AoA by                          |-0.000109283                  |
+-----------------------------------------------------------------------+
+----------------------------------------------------------------+
|  Inner_Iter|    rms[Rho]|     rms[nu]|          CL|          CD|
+----------------------------------------------------------------+
|         302|   -4.154726|   -7.872627|    0.824022|    0.012020|
|         303|   -4.539286|   -7.898980|    0.824021|    0.012020|
|         304|   -4.784174|   -7.911656|    0.824021|    0.012020|
|         305|   -4.863541|   -7.921403|    0.824021|    0.012020|
|         306|   -4.917041|   -7.929953|    0.824021|    0.012020|
|         307|   -4.986046|   -7.937696|    0.824021|    0.012020|
|         308|   -5.070841|   -7.944752|    0.824020|    0.012019|
|         309|   -5.158250|   -7.951195|    0.824020|    0.012019|
|         310|   -5.231653|   -7.957066|    0.824020|    0.012019|
|         311|   -5.283329|   -7.962387|    0.824020|    0.012019|
|         312|   -5.315891|   -7.967185|    0.824020|    0.012019|
|         313|   -5.333973|   -7.971530|    0.824020|    0.012019|
|         314|   -5.341760|   -7.975524|    0.824020|    0.012018|
|         315|   -5.344747|   -7.979241|    0.824020|    0.012018|
|         316|   -5.348800|   -7.982718|    0.824019|    0.012018|
|         317|   -5.357740|   -7.985960|    0.824019|    0.012018|
|         318|   -5.372319|   -7.988971|    0.824019|    0.012018|
|         319|   -5.390759|   -7.991772|    0.824019|    0.012018|
|         320|   -5.410143|   -7.994398|    0.824020|    0.012018|
|         321|   -5.428090|   -7.996881|    0.824020|    0.012018|
|         322|   -5.443865|   -7.999246|    0.824020|    0.012017|
|         323|   -5.458245|   -8.001506|    0.824020|    0.012017|
|         324|   -5.472471|   -8.003674|    0.824020|    0.012017|
|         325|   -5.487308|   -8.005767|    0.824020|    0.012017|
|         326|   -5.502739|   -8.007806|    0.824020|    0.012017|
|         327|   -5.518184|   -8.009824|    0.824021|    0.012017|
|         328|   -5.532869|   -8.011855|    0.824021|    0.012017|
|         329|   -5.546094|   -8.013940|    0.824021|    0.012017|
|         330|   -5.557378|   -8.016116|    0.824022|    0.012017|
|         331|   -5.566535|   -8.018414|    0.824022|    0.012017|
|         332|   -5.573732|   -8.020859|    0.824022|    0.012017|
|         333|   -5.579494|   -8.023468|    0.824023|    0.012017|
|         334|   -5.584591|   -8.026244|    0.824023|    0.012017|
|         335|   -5.589843|   -8.029183|    0.824024|    0.012017|
|         336|   -5.595932|   -8.032269|    0.824024|    0.012017|
|         337|   -5.603266|   -8.035479|    0.824024|    0.012017|
|         338|   -5.611931|   -8.038784|    0.824025|    0.012017|
|         339|   -5.621692|   -8.042146|    0.824025|    0.012017|
|         340|   -5.632041|   -8.045525|    0.824026|    0.012017|
|         341|   -5.642287|   -8.048881|    0.824026|    0.012017|
|         342|   -5.651700|   -8.052174|    0.824026|    0.012017|
|         343|   -5.659692|   -8.055365|    0.824027|    0.012017|
|         344|   -5.665980|   -8.058422|    0.824027|    0.012018|
|         345|   -5.670663|   -8.061316|    0.824027|    0.012018|
|         346|   -5.674167|   -8.064024|    0.824028|    0.012018|
|         347|   -5.677101|   -8.066529|    0.824028|    0.012018|
|         348|   -5.680068|   -8.068817|    0.824028|    0.012018|
|         349|   -5.683526|   -8.070886|    0.824028|    0.012018|
|         350|   -5.687719|   -8.072740|    0.824028|    0.012018|
|         351|   -5.692660|   -8.074388|    0.824028|    0.012018|
|         352|   -5.698185|   -8.075853|    0.824028|    0.012018|
|         353|   -5.704015|   -8.077162|    0.824028|    0.012019|
|         354|   -5.709846|   -8.078342|    0.824028|    0.012019|
|         355|   -5.715414|   -8.079431|    0.824028|    0.012019|
|         356|   -5.720553|   -8.080467|    0.824028|    0.012019|
|         357|   -5.725213|   -8.081491|    0.824028|    0.012019|
|         358|   -5.729452|   -8.082548|    0.824027|    0.012019|
|         359|   -5.733401|   -8.083683|    0.824027|    0.012019|
|         360|   -5.737223|   -8.084942|    0.824026|    0.012019|
|         361|   -5.741076|   -8.086369|    0.824026|    0.012019|
|         362|   -5.745089|   -8.088000|    0.824025|    0.012020|
|         363|   -5.749351|   -8.089872|    0.824025|    0.012020|
|         364|   -5.753912|   -8.092012|    0.824024|    0.012020|
|         365|   -5.758789|   -8.094443|    0.824024|    0.012020|
|         366|   -5.763985|   -8.097183|    0.824023|    0.012020|
|         367|   -5.769491|   -8.100238|    0.824022|    0.012020|
|         368|   -5.775300|   -8.103607|    0.824021|    0.012020|
|         369|   -5.781405|   -8.107281|    0.824021|    0.012020|
|         370|   -5.787803|   -8.111242|    0.824020|    0.012020|
|         371|   -5.794492|   -8.115462|    0.824019|    0.012020|
|         372|   -5.801463|   -8.119905|    0.824018|    0.012020|
|         373|   -5.808703|   -8.124524|    0.824018|    0.012020|
|         374|   -5.816188|   -8.129265|    0.824017|    0.012020|
|         375|   -5.823886|   -8.134071|    0.824016|    0.012020|
|         376|   -5.831753|   -8.138876|    0.824016|    0.012020|
|         377|   -5.839737|   -8.143612|    0.824015|    0.012020|
|         378|   -5.847778|   -8.148211|    0.824014|    0.012020|
|         379|   -5.855812|   -8.152609|    0.824014|    0.012020|
|         380|   -5.863768|   -8.156749|    0.824013|    0.012020|
|         381|   -5.871573|   -8.160583|    0.824013|    0.012020|
|         382|   -5.879152|   -8.164076|    0.824013|    0.012020|
|         383|   -5.886429|   -8.167204|    0.824012|    0.012020|
|         384|   -5.893333|   -8.169958|    0.824012|    0.012020|
|         385|   -5.899795|   -8.172347|    0.824012|    0.012020|
|         386|   -5.905753|   -8.174397|    0.824011|    0.012020|
|         387|   -5.911155|   -8.176145|    0.824011|    0.012020|
|         388|   -5.915958|   -8.177643|    0.824011|    0.012020|
|         389|   -5.920135|   -8.178952|    0.824011|    0.012020|
|         390|   -5.923670|   -8.180139|    0.824011|    0.012020|
|         391|   -5.926561|   -8.181276|    0.824011|    0.012020|
|         392|   -5.928823|   -8.182435|    0.824011|    0.012020|
|         393|   -5.930481|   -8.183687|    0.824011|    0.012020|
|         394|   -5.931570|   -8.185100|    0.824012|    0.012020|
|         395|   -5.932138|   -8.186733|    0.824012|    0.012020|
|         396|   -5.932234|   -8.188639|    0.824012|    0.012020|
|         397|   -5.931917|   -8.190866|    0.824012|    0.012020|
|         398|   -5.931244|   -8.193452|    0.824013|    0.012020|
|         399|   -5.930274|   -8.196425|    0.824013|    0.012020|
|         400|   -5.929066|   -8.199807|    0.824013|    0.012019|
|         401|   -5.927675|   -8.203608|    0.824014|    0.012018|
+-----------------------------------------------------------------------+
|Fixed CL Mode                           |Value                         |
+-----------------------------------------------------------------------+
|Current CL                              |0.824014                      |
|Target CL                               |0.824                         |
|Previous AOA                            |2.79056                       |
|Changed AoA by                          |-6.68402e-05                  |
+-----------------------------------------------------------------------+
+----------------------------------------------------------------+
|  Inner_Iter|    rms[Rho]|     rms[nu]|          CL|          CD|
+----------------------------------------------------------------+
|         402|   -4.368190|   -8.150494|    0.824014|    0.012018|
|         403|   -4.751478|   -8.182013|    0.824015|    0.012018|
|         404|   -4.992228|   -8.195571|    0.824015|    0.012018|
|         405|   -5.069072|   -8.205688|    0.824015|    0.012018|
|         406|   -5.121446|   -8.214734|    0.824016|    0.012018|
|         407|   -5.189149|   -8.223271|    0.824016|    0.012018|
|         408|   -5.272016|   -8.231499|    0.824017|    0.012018|
|         409|   -5.357212|   -8.239547|    0.824017|    0.012018|
|         410|   -5.429198|   -8.247491|    0.824018|    0.012017|
|         411|   -5.481057|   -8.255340|    0.824018|    0.012017|
|         412|   -5.515133|   -8.263102|    0.824018|    0.012017|
|         413|   -5.535291|   -8.270836|    0.824019|    0.012017|
|         414|   -5.544980|   -8.278632|    0.824019|    0.012017|
|         415|   -5.549183|   -8.286558|    0.824020|    0.012017|
|         416|   -5.553589|   -8.294620|    0.824020|    0.012017|
|         417|   -5.562089|   -8.302781|    0.824021|    0.012017|
|         418|   -5.575636|   -8.311008|    0.824021|    0.012017|
|         419|   -5.592744|   -8.319294|    0.824021|    0.012017|
|         420|   -5.610869|   -8.327644|    0.824022|    0.012017|
|         421|   -5.627983|   -8.336063|    0.824022|    0.012016|
|         422|   -5.643539|   -8.344529|    0.824022|    0.012016|
|         423|   -5.658272|   -8.352985|    0.824023|    0.012016|
|         424|   -5.673232|   -8.361358|    0.824023|    0.012016|
|         425|   -5.688942|   -8.369565|    0.824023|    0.012016|
|         426|   -5.705161|   -8.377530|    0.824024|    0.012016|
|         427|   -5.721121|   -8.385190|    0.824024|    0.012016|
|         428|   -5.735926|   -8.392480|    0.824024|    0.012016|
|         429|   -5.748851|   -8.399392|    0.824024|    0.012016|
|         430|   -5.759502|   -8.405915|    0.824024|    0.012016|
|         431|   -5.767872|   -8.412061|    0.824025|    0.012016|
|         432|   -5.774346|   -8.417833|    0.824025|    0.012016|
|         433|   -5.779631|   -8.423243|    0.824025|    0.012016|
|         434|   -5.784601|   -8.428295|    0.824025|    0.012016|
|         435|   -5.790103|   -8.432983|    0.824025|    0.012016|
|         436|   -5.796779|   -8.437294|    0.824025|    0.012016|
|         437|   -5.804971|   -8.441221|    0.824025|    0.012016|
|         438|   -5.814689|   -8.444749|    0.824025|    0.012016|
|         439|   -5.825628|   -8.447867|    0.824025|    0.012016|
|         440|   -5.837226|   -8.450566|    0.824025|    0.012016|
|         441|   -5.848750|   -8.452839|    0.824025|    0.012016|
|         442|   -5.859448|   -8.454693|    0.824025|    0.012016|
|         443|   -5.868719|   -8.456142|    0.824025|    0.012016|
|         444|   -5.876277|   -8.457205|    0.824025|    0.012016|
|         445|   -5.882222|   -8.457906|    0.824025|    0.012016|
|         446|   -5.886992|   -8.458267|    0.824025|    0.012016|
|         447|   -5.891205|   -8.458313|    0.824025|    0.012016|
|         448|   -5.895476|   -8.458061|    0.824024|    0.012016|
|         449|   -5.900274|   -8.457517|    0.824024|    0.012016|
|         450|   -5.905844|   -8.456685|    0.824024|    0.012016|
|         451|   -5.912196|   -8.455567|    0.824024|    0.012017|
|         452|   -5.919148|   -8.454148|    0.824024|    0.012017|
|         453|   -5.926394|   -8.452429|    0.824024|    0.012017|
|         454|   -5.933591|   -8.450391|    0.824023|    0.012017|
|         455|   -5.940435|   -8.448023|    0.824023|    0.012017|
|         456|   -5.946720|   -8.445317|    0.824023|    0.012017|
|         457|   -5.952361|   -8.442273|    0.824023|    0.012017|
|         458|   -5.957391|   -8.438899|    0.824022|    0.012017|
|         459|   -5.961922|   -8.435208|    0.824022|    0.012017|
|         460|   -5.966108|   -8.431225|    0.824022|    0.012017|
|         461|   -5.970097|   -8.426983|    0.824021|    0.012017|
|         462|   -5.974009|   -8.422526|    0.824021|    0.012017|
|         463|   -5.977921|   -8.417909|    0.824020|    0.012018|
|         464|   -5.981870|   -8.413194|    0.824020|    0.012018|
|         465|   -5.985863|   -8.408451|    0.824020|    0.012018|
|         466|   -5.989893|   -8.403750|    0.824019|    0.012018|
|         467|   -5.993947|   -8.399169|    0.824019|    0.012018|
|         468|   -5.998020|   -8.394781|    0.824018|    0.012018|
|         469|   -6.002115|   -8.390657|    0.824018|    0.012018|
|         470|   -6.006244|   -8.386864|    0.824017|    0.012018|
|         471|   -6.010426|   -8.383460|    0.824017|    0.012018|
|         472|   -6.014683|   -8.380494|    0.824016|    0.012018|
|         473|   -6.019034|   -8.378007|    0.824016|    0.012018|
|         474|   -6.023497|   -8.376024|    0.824015|    0.012018|
|         475|   -6.028086|   -8.374557|    0.824015|    0.012019|
|         476|   -6.032811|   -8.373604|    0.824014|    0.012019|
|         477|   -6.037681|   -8.373149|    0.824014|    0.012019|
|         478|   -6.042701|   -8.373158|    0.824014|    0.012019|
|         479|   -6.047878|   -8.373583|    0.824013|    0.012019|
|         480|   -6.053219|   -8.374361|    0.824013|    0.012019|
|         481|   -6.058730|   -8.375420|    0.824012|    0.012019|
|         482|   -6.064418|   -8.376672|    0.824012|    0.012019|
|         483|   -6.070289|   -8.378024|    0.824012|    0.012019|
|         484|   -6.076350|   -8.379374|    0.824011|    0.012019|
|         485|   -6.082606|   -8.380622|    0.824011|    0.012019|
|         486|   -6.089059|   -8.381672|    0.824011|    0.012019|
|         487|   -6.095713|   -8.382436|    0.824011|    0.012019|
|         488|   -6.102566|   -8.382842|    0.824010|    0.012019|
|         489|   -6.109615|   -8.382838|    0.824010|    0.012019|
|         490|   -6.116854|   -8.382393|    0.824010|    0.012019|
|         491|   -6.124274|   -8.381503|    0.824010|    0.012019|
|         492|   -6.131863|   -8.380186|    0.824010|    0.012019|
|         493|   -6.139603|   -8.378486|    0.824010|    0.012019|
|         494|   -6.147473|   -8.376466|    0.824010|    0.012019|
|         495|   -6.155447|   -8.374203|    0.824010|    0.012019|
|         496|   -6.163492|   -8.371786|    0.824010|    0.012019|
|         497|   -6.171573|   -8.369307|    0.824010|    0.012019|
|         498|   -6.179648|   -8.366858|    0.824010|    0.012018|
|         499|   -6.187671|   -8.364527|    0.824010|    0.012018|
|         500|   -6.195591|   -8.362393|    0.824010|    0.012018|
|         501|   -6.203356|   -8.360522|    0.824010|    0.012018|
+-----------------------------------------------------------------------+
|Fixed CL Mode                           |Value                         |
+-----------------------------------------------------------------------+
|Current CL                              |0.82401                       |
|Target CL                               |0.824                         |
|Previous AOA                            |2.79049                       |
|Changed AoA by                          |-5.01172e-05                  |
+-----------------------------------------------------------------------+
+----------------------------------------------------------------+
|  Inner_Iter|    rms[Rho]|     rms[nu]|          CL|          CD|
+----------------------------------------------------------------+
|         502|   -4.493348|   -8.295670|    0.824010|    0.012017|
|         503|   -4.876926|   -8.324669|    0.824010|    0.012017|
|         504|   -5.118153|   -8.333366|    0.824011|    0.012017|
|         505|   -5.195225|   -8.338164|    0.824011|    0.012017|
|         506|   -5.248017|   -8.341797|    0.824011|    0.012017|
|         507|   -5.316708|   -8.344908|    0.824011|    0.012017|
|         508|   -5.401582|   -8.347701|    0.824011|    0.012017|
|         509|   -5.490269|   -8.350284|    0.824012|    0.012017|
|         510|   -5.567106|   -8.352711|    0.824012|    0.012017|
|         511|   -5.624236|   -8.354974|    0.824012|    0.012017|
|         512|   -5.662982|   -8.357062|    0.824012|    0.012017|
|         513|   -5.686534|   -8.359014|    0.824012|    0.012016|
|         514|   -5.698119|   -8.360888|    0.824013|    0.012016|
|         515|   -5.703169|   -8.362721|    0.824013|    0.012016|
|         516|   -5.708186|   -8.364499|    0.824013|    0.012016|
|         517|   -5.717702|   -8.366182|    0.824013|    0.012016|
|         518|   -5.732924|   -8.367746|    0.824013|    0.012016|
|         519|   -5.752265|   -8.369192|    0.824013|    0.012016|
|         520|   -5.772838|   -8.370537|    0.824014|    0.012016|
|         521|   -5.792249|   -8.371804|    0.824014|    0.012016|
|         522|   -5.809790|   -8.373001|    0.824014|    0.012016|
|         523|   -5.826298|   -8.374130|    0.824014|    0.012016|
|         524|   -5.843048|   -8.375179|    0.824014|    0.012016|
|         525|   -5.860725|   -8.376142|    0.824014|    0.012016|
|         526|   -5.879104|   -8.377024|    0.824014|    0.012015|
|         527|   -5.897298|   -8.377840|    0.824014|    0.012015|
|         528|   -5.914218|   -8.378606|    0.824014|    0.012015|
|         529|   -5.928935|   -8.379351|    0.824014|    0.012015|
|         530|   -5.940892|   -8.380119|    0.824015|    0.012015|
|         531|   -5.950004|   -8.380928|    0.824015|    0.012015|
|         532|   -5.956687|   -8.381803|    0.824015|    0.012015|
|         533|   -5.961788|   -8.382757|    0.824015|    0.012015|
|         534|   -5.966391|   -8.383798|    0.824015|    0.012015|
|         535|   -5.971560|   -8.384924|    0.824014|    0.012015|
|         536|   -5.978117|   -8.386123|    0.824014|    0.012015|
|         537|   -5.986516|   -8.387378|    0.824014|    0.012015|
|         538|   -5.996808|   -8.388664|    0.824014|    0.012015|
|         539|   -6.008657|   -8.389958|    0.824014|    0.012015|
|         540|   -6.021393|   -8.391233|    0.824014|    0.012015|
|         541|   -6.034115|   -8.392465|    0.824014|    0.012015|
|         542|   -6.045865|   -8.393634|    0.824014|    0.012015|
|         543|   -6.055864|   -8.394723|    0.824014|    0.012015|
|         544|   -6.063732|   -8.395720|    0.824014|    0.012015|
|         545|   -6.069608|   -8.396617|    0.824014|    0.012015|
|         546|   -6.074081|   -8.397407|    0.824014|    0.012015|
|         547|   -6.077979|   -8.398090|    0.824013|    0.012015|
|         548|   -6.082131|   -8.398660|    0.824013|    0.012015|
|         549|   -6.087167|   -8.399119|    0.824013|    0.012015|
|         550|   -6.093429|   -8.399462|    0.824013|    0.012015|
|         551|   -6.100961|   -8.399684|    0.824013|    0.012015|
|         552|   -6.109555|   -8.399781|    0.824013|    0.012016|
|         553|   -6.118838|   -8.399756|    0.824012|    0.012016|
|         554|   -6.128375|   -8.399596|    0.824012|    0.012016|
|         555|   -6.137762|   -8.399294|    0.824012|    0.012016|
|         556|   -6.146711|   -8.398841|    0.824012|    0.012016|
|         557|   -6.155087|   -8.398234|    0.824011|    0.012016|
|         558|   -6.162910|   -8.397471|    0.824011|    0.012016|
|         559|   -6.170316|   -8.396555|    0.824011|    0.012016|
|         560|   -6.177502|   -8.395494|    0.824011|    0.012016|
|         561|   -6.184667|   -8.394301|    0.824010|    0.012016|
|         562|   -6.191971|   -8.392995|    0.824010|    0.012016|
|         563|   -6.199520|   -8.391601|    0.824010|    0.012016|
|         564|   -6.207357|   -8.390151|    0.824009|    0.012016|
|         565|   -6.215479|   -8.388682|    0.824009|    0.012017|
|         566|   -6.223854|   -8.387234|    0.824009|    0.012017|
|         567|   -6.232436|   -8.385851|    0.824008|    0.012017|
|         568|   -6.241183|   -8.384578|    0.824008|    0.012017|
|         569|   -6.250060|   -8.383460|    0.824007|    0.012017|
|         570|   -6.259042|   -8.382537|    0.824007|    0.012017|
|         571|   -6.268111|   -8.381847|    0.824007|    0.012017|
|         572|   -6.277246|   -8.381421|    0.824006|    0.012017|
|         573|   -6.286426|   -8.381283|    0.824006|    0.012017|
|         574|   -6.295616|   -8.381447|    0.824006|    0.012017|
|         575|   -6.304774|   -8.381918|    0.824005|    0.012017|
|         576|   -6.313848|   -8.382691|    0.824005|    0.012018|
|         577|   -6.322778|   -8.383749|    0.824004|    0.012018|
|         578|   -6.331501|   -8.385065|    0.824004|    0.012018|
|         579|   -6.339958|   -8.386603|    0.824004|    0.012018|
|         580|   -6.348089|   -8.388315|    0.824003|    0.012018|
|         581|   -6.355846|   -8.390147|    0.824003|    0.012018|
|         582|   -6.363187|   -8.392039|    0.824003|    0.012018|
|         583|   -6.370084|   -8.393925|    0.824003|    0.012018|
|         584|   -6.376519|   -8.395742|    0.824002|    0.012018|
|         585|   -6.382487|   -8.397426|    0.824002|    0.012018|
|         586|   -6.387998|   -8.398916|    0.824002|    0.012018|
|         587|   -6.393070|   -8.400164|    0.824002|    0.012018|
|         588|   -6.397735|   -8.401128|    0.824002|    0.012018|
|         589|   -6.402033|   -8.401780|    0.824002|    0.012018|
|         590|   -6.406010|   -8.402106|    0.824002|    0.012018|
|         591|   -6.409718|   -8.402106|    0.824002|    0.012018|
|         592|   -6.413211|   -8.401794|    0.824002|    0.012018|
|         593|   -6.416541|   -8.401198|    0.824002|    0.012018|
|         594|   -6.419758|   -8.400355|    0.824002|    0.012018|
|         595|   -6.422908|   -8.399310|    0.824002|    0.012019|
|         596|   -6.426029|   -8.398116|    0.824002|    0.012019|
|         597|   -6.429151|   -8.396824|    0.824002|    0.012019|
|         598|   -6.432298|   -8.395487|    0.824002|    0.012019|
|         599|   -6.435481|   -8.394155|    0.824002|    0.012019|
|         600|   -6.438707|   -8.392871|    0.824002|    0.012019|
|         601|   -6.441970|   -8.391672|    0.824003|    0.012018|
+-----------------------------------------------------------------------+
|Fixed CL Mode                           |Value                         |
+-----------------------------------------------------------------------+
|Current CL                              |0.824003                      |
|Target CL                               |0.824                         |
|Previous AOA                            |2.79044                       |
|Changed AoA by                          |-1.19182e-05                  |
+-----------------------------------------------------------------------+
+----------------------------------------------------------------+
|  Inner_Iter|    rms[Rho]|     rms[nu]|          CL|          CD|
+----------------------------------------------------------------+
|         602|   -5.116848|   -8.385732|    0.824003|    0.012018|
|         603|   -5.497563|   -8.387211|    0.824003|    0.012018|
|         604|   -5.729757|   -8.387127|    0.824003|    0.012018|
|         605|   -5.800713|   -8.386868|    0.824003|    0.012018|
|         606|   -5.849650|   -8.386633|    0.824004|    0.012018|
|         607|   -5.913377|   -8.386452|    0.824004|    0.012018|
|         608|   -5.990813|   -8.386323|    0.824004|    0.012018|
|         609|   -6.069893|   -8.386236|    0.824004|    0.012018|
|         610|   -6.137333|   -8.386175|    0.824004|    0.012018|
|         611|   -6.187774|   -8.386121|    0.824005|    0.012018|
|         612|   -6.223036|   -8.386057|    0.824005|    0.012018|
|         613|   -6.245665|   -8.385969|    0.824005|    0.012018|
|         614|   -6.257891|   -8.385850|    0.824005|    0.012018|
|         615|   -6.263672|   -8.385694|    0.824006|    0.012018|
|         616|   -6.268055|   -8.385496|    0.824006|    0.012018|
|         617|   -6.274754|   -8.385258|    0.824006|    0.012018|
|         618|   -6.284906|   -8.384986|    0.824006|    0.012018|
|         619|   -6.297491|   -8.384691|    0.824006|    0.012017|
|         620|   -6.310621|   -8.384394|    0.824006|    0.012017|
|         621|   -6.322878|   -8.384117|    0.824007|    0.012017|
|         622|   -6.333982|   -8.383883|    0.824007|    0.012017|
|         623|   -6.344501|   -8.383718|    0.824007|    0.012017|
|         624|   -6.355074|   -8.383647|    0.824007|    0.012017|
|         625|   -6.365843|   -8.383694|    0.824007|    0.012017|
|         626|   -6.376379|   -8.383884|    0.824007|    0.012017|
|         627|   -6.385967|   -8.384240|    0.824007|    0.012017|
|         628|   -6.393970|   -8.384782|    0.824007|    0.012017|
|         629|   -6.400052|   -8.385526|    0.824007|    0.012017|
|         630|   -6.404234|   -8.386486|    0.824008|    0.012017|
|         631|   -6.406839|   -8.387669|    0.824008|    0.012017|
|         632|   -6.408400|   -8.389078|    0.824008|    0.012017|
|         633|   -6.409551|   -8.390711|    0.824008|    0.012017|
|         634|   -6.410908|   -8.392563|    0.824008|    0.012017|
|         635|   -6.412966|   -8.394620|    0.824008|    0.012016|
|         636|   -6.416027|   -8.396869|    0.824008|    0.012016|
|         637|   -6.420169|   -8.399289|    0.824008|    0.012016|
|         638|   -6.425264|   -8.401858|    0.824008|    0.012016|
|         639|   -6.431022|   -8.404555|    0.824008|    0.012016|
|         640|   -6.437046|   -8.407356|    0.824008|    0.012016|
|         641|   -6.442911|   -8.410239|    0.824008|    0.012016|
|         642|   -6.448242|   -8.413184|    0.824008|    0.012016|
|         643|   -6.452793|   -8.416173|    0.824008|    0.012016|
|         644|   -6.456496|   -8.419190|    0.824008|    0.012016|
|         645|   -6.459464|   -8.422223|    0.824008|    0.012016|
|         646|   -6.461946|   -8.425263|    0.824008|    0.012016|
|         647|   -6.464248|   -8.428305|    0.824008|    0.012016|
|         648|   -6.466651|   -8.431345|    0.824008|    0.012016|
|         649|   -6.469352|   -8.434384|    0.824007|    0.012016|
|         650|   -6.472435|   -8.437424|    0.824007|    0.012016|
|         651|   -6.475873|   -8.440470|    0.824007|    0.012016|
|         652|   -6.479553|   -8.443524|    0.824007|    0.012016|
|         653|   -6.483314|   -8.446587|    0.824007|    0.012016|
|         654|   -6.486989|   -8.449662|    0.824007|    0.012016|
|         655|   -6.490437|   -8.452748|    0.824007|    0.012016|
|         656|   -6.493568|   -8.455844|    0.824007|    0.012016|
|         657|   -6.496345|   -8.458946|    0.824007|    0.012016|
|         658|   -6.498779|   -8.462046|    0.824007|    0.012016|
|         659|   -6.500916|   -8.465136|    0.824008|    0.012016|
|         660|   -6.502811|   -8.468205|    0.824008|    0.012016|
|         661|   -6.504524|   -8.471242|    0.824008|    0.012016|
|         662|   -6.506097|   -8.474232|    0.824008|    0.012016|
|         663|   -6.507562|   -8.477165|    0.824008|    0.012016|
|         664|   -6.508934|   -8.480028|    0.824008|    0.012016|
|         665|   -6.510219|   -8.482814|    0.824007|    0.012016|
|         666|   -6.511419|   -8.485516|    0.824007|    0.012016|
|         667|   -6.512538|   -8.488131|    0.824007|    0.012017|
|         668|   -6.513581|   -8.490662|    0.824007|    0.012017|
|         669|   -6.514558|   -8.493115|    0.824007|    0.012017|
|         670|   -6.515481|   -8.495500|    0.824007|    0.012017|
|         671|   -6.516366|   -8.497832|    0.824007|    0.012017|
|         672|   -6.517228|   -8.500127|    0.824007|    0.012017|
|         673|   -6.518080|   -8.502406|    0.824007|    0.012017|
|         674|   -6.518935|   -8.504689|    0.824007|    0.012017|
|         675|   -6.519803|   -8.506998|    0.824007|    0.012017|
|         676|   -6.520691|   -8.509353|    0.824007|    0.012017|
|         677|   -6.521606|   -8.511772|    0.824007|    0.012017|
|         678|   -6.522555|   -8.514271|    0.824007|    0.012017|
|         679|   -6.523543|   -8.516859|    0.824007|    0.012017|
|         680|   -6.524576|   -8.519544|    0.824007|    0.012017|
|         681|   -6.525661|   -8.522325|    0.824007|    0.012017|
|         682|   -6.526804|   -8.525198|    0.824007|    0.012018|
|         683|   -6.528015|   -8.528151|    0.824007|    0.012018|
|         684|   -6.529302|   -8.531168|    0.824007|    0.012018|
|         685|   -6.530674|   -8.534227|    0.824007|    0.012018|
|         686|   -6.532143|   -8.537303|    0.824007|    0.012018|
|         687|   -6.533720|   -8.540365|    0.824007|    0.012018|
|         688|   -6.535417|   -8.543383|    0.824007|    0.012018|
|         689|   -6.537245|   -8.546325|    0.824006|    0.012018|
|         690|   -6.539218|   -8.549160|    0.824006|    0.012018|
|         691|   -6.541348|   -8.551858|    0.824006|    0.012018|
|         692|   -6.543647|   -8.554394|    0.824006|    0.012018|
|         693|   -6.546125|   -8.556748|    0.824006|    0.012018|
|         694|   -6.548794|   -8.558906|    0.824006|    0.012018|
|         695|   -6.551661|   -8.560859|    0.824006|    0.012018|
|         696|   -6.554733|   -8.562606|    0.824006|    0.012018|
|         697|   -6.558014|   -8.564152|    0.824006|    0.012018|
|         698|   -6.561506|   -8.565508|    0.824006|    0.012018|
|         699|   -6.565207|   -8.566692|    0.824006|    0.012018|
|         700|   -6.569113|   -8.567723|    0.824006|    0.012018|
|         701|   -6.573215|   -8.568626|    0.824006|    0.012018|
+-----------------------------------------------------------------------+
|Fixed CL Mode                           |Value                         |
+-----------------------------------------------------------------------+
|Current CL                              |0.824006                      |
|Target CL                               |0.824                         |
|Previous AOA                            |2.79043                       |
|Changed AoA by                          |-3.11466e-05                  |
+-----------------------------------------------------------------------+
+----------------------------------------------------------------+
|  Inner_Iter|    rms[Rho]|     rms[nu]|          CL|          CD|
+----------------------------------------------------------------+
|         702|   -4.700007|   -8.505501|    0.824006|    0.012018|
|         703|   -5.084441|   -8.536412|    0.824006|    0.012018|
|         704|   -5.328002|   -8.546459|    0.824006|    0.012018|
|         705|   -5.406277|   -8.552237|    0.824006|    0.012018|
|         706|   -5.459593|   -8.556527|    0.824006|    0.012018|
|         707|   -5.529008|   -8.559985|    0.824006|    0.012018|
|         708|   -5.615027|   -8.562826|    0.824006|    0.012018|
|         709|   -5.705099|   -8.565174|    0.824006|    0.012018|
|         710|   -5.782969|   -8.567112|    0.824006|    0.012018|
|         711|   -5.840278|   -8.568682|    0.824006|    0.012018|
|         712|   -5.878398|   -8.569935|    0.824006|    0.012018|
|         713|   -5.900879|   -8.570977|    0.824006|    0.012018|
|         714|   -5.911356|   -8.571937|    0.824006|    0.012018|
|         715|   -5.915611|   -8.572915|    0.824006|    0.012018|
|         716|   -5.920321|   -8.573950|    0.824006|    0.012018|
|         717|   -5.930026|   -8.575040|    0.824007|    0.012018|
|         718|   -5.945839|   -8.576184|    0.824007|    0.012018|
|         719|   -5.966008|   -8.577395|    0.824007|    0.012018|
|         720|   -5.987415|   -8.578696|    0.824007|    0.012018|
|         721|   -6.007424|   -8.580104|    0.824007|    0.012018|
|         722|   -6.025178|   -8.581618|    0.824007|    0.012018|
|         723|   -6.041520|   -8.583216|    0.824007|    0.012018|
|         724|   -6.057833|   -8.584871|    0.824007|    0.012018|
|         725|   -6.074938|   -8.586555|    0.824007|    0.012018|
|         726|   -6.092735|   -8.588251|    0.824007|    0.012018|
|         727|   -6.110447|   -8.589947|    0.824007|    0.012018|
|         728|   -6.127061|   -8.591643|    0.824007|    0.012018|
|         729|   -6.141684|   -8.593342|    0.824007|    0.012018|
|         730|   -6.153740|   -8.595040|    0.824007|    0.012018|
|         731|   -6.163077|   -8.596764|    0.824007|    0.012018|
|         732|   -6.170028|   -8.598520|    0.824007|    0.012018|
|         733|   -6.175373|   -8.600313|    0.824007|    0.012018|
|         734|   -6.180168|   -8.602144|    0.824007|    0.012018|
|         735|   -6.185488|   -8.604013|    0.824007|    0.012018|
|         736|   -6.192198|   -8.605915|    0.824007|    0.012018|
|         737|   -6.200813|   -8.607844|    0.824007|    0.012018|
|         738|   -6.211446|   -8.609789|    0.824007|    0.012018|
|         739|   -6.223818|   -8.611740|    0.824007|    0.012018|
|         740|   -6.237300|   -8.613690|    0.824006|    0.012018|
|         741|   -6.251008|   -8.615629|    0.824006|    0.012017|
|         742|   -6.263964|   -8.617554|    0.824006|    0.012017|
|         743|   -6.275333|   -8.619462|    0.824006|    0.012017|
|         744|   -6.284669|   -8.621355|    0.824006|    0.012017|
|         745|   -6.292049|   -8.623237|    0.824006|    0.012017|
|         746|   -6.298034|   -8.625113|    0.824006|    0.012017|
|         747|   -6.303467|   -8.626988|    0.824006|    0.012017|
|         748|   -6.309220|   -8.628868|    0.824006|    0.012017|
|         749|   -6.315982|   -8.630757|    0.824006|    0.012017|
|         750|   -6.324150|   -8.632659|    0.824006|    0.012017|
|         751|   -6.333803|   -8.634575|    0.824006|    0.012017|
|         752|   -6.344745|   -8.636520|    0.824006|    0.012017|
|         753|   -6.356584|   -8.638489|    0.824006|    0.012017|
|         754|   -6.368835|   -8.640479|    0.824006|    0.012017|
|         755|   -6.381026|   -8.642495|    0.824006|    0.012017|
|         756|   -6.392792|   -8.644539|    0.824006|    0.012017|
|         757|   -6.403933|   -8.646621|    0.824006|    0.012017|
|         758|   -6.414427|   -8.648750|    0.824005|    0.012017|
|         759|   -6.424394|   -8.650939|    0.824005|    0.012017|
|         760|   -6.434038|   -8.653205|    0.824005|    0.012017|
|         761|   -6.443579|   -8.655566|    0.824005|    0.012017|
|         762|   -6.453203|   -8.658044|    0.824005|    0.012017|
|         763|   -6.463029|   -8.660666|    0.824005|    0.012017|
|         764|   -6.473105|   -8.663457|    0.824005|    0.012017|
|         765|   -6.483424|   -8.666446|    0.824005|    0.012017|
|         766|   -6.493936|   -8.669664|    0.824004|    0.012017|
|         767|   -6.504577|   -8.673139|    0.824004|    0.012017|
|         768|   -6.515285|   -8.676897|    0.824004|    0.012017|
|         769|   -6.526008|   -8.680961|    0.824004|    0.012017|
|         770|   -6.536709|   -8.685347|    0.824004|    0.012017|
|         771|   -6.547358|   -8.690065|    0.824004|    0.012017|
|         772|   -6.557931|   -8.695117|    0.824003|    0.012017|
|         773|   -6.568398|   -8.700492|    0.824003|    0.012017|
|         774|   -6.578718|   -8.706171|    0.824003|    0.012017|
|         775|   -6.588840|   -8.712120|    0.824003|    0.012017|
|         776|   -6.598701|   -8.718294|    0.824003|    0.012017|
|         777|   -6.608231|   -8.724635|    0.824003|    0.012017|
|         778|   -6.617357|   -8.731072|    0.824003|    0.012017|
|         779|   -6.626012|   -8.737527|    0.824003|    0.012017|
|         780|   -6.634134|   -8.743913|    0.824003|    0.012017|
|         781|   -6.641674|   -8.750137|    0.824003|    0.012017|
|         782|   -6.648596|   -8.756111|    0.824003|    0.012017|
|         783|   -6.654882|   -8.761749|    0.824003|    0.012017|
|         784|   -6.660527|   -8.766975|    0.824003|    0.012017|
|         785|   -6.665543|   -8.771730|    0.824003|    0.012017|
|         786|   -6.669957|   -8.775971|    0.824003|    0.012017|
|         787|   -6.673810|   -8.779679|    0.824003|    0.012017|
|         788|   -6.677153|   -8.782859|    0.824003|    0.012017|
|         789|   -6.680048|   -8.785537|    0.824003|    0.012017|
|         790|   -6.682563|   -8.787762|    0.824003|    0.012017|
|         791|   -6.684769|   -8.789599|    0.824003|    0.012017|
|         792|   -6.686740|   -8.791126|    0.824003|    0.012017|
|         793|   -6.688547|   -8.792432|    0.824004|    0.012017|
|         794|   -6.690258|   -8.793608|    0.824004|    0.012017|
|         795|   -6.691934|   -8.794740|    0.824004|    0.012017|
|         796|   -6.693631|   -8.795912|    0.824004|    0.012017|
|         797|   -6.695398|   -8.797197|    0.824004|    0.012017|
|         798|   -6.697274|   -8.798653|    0.824004|    0.012017|
|         799|   -6.699291|   -8.800329|    0.824005|    0.012017|
|         800|   -6.701474|   -8.802251|    0.824005|    0.012017|
|         801|   -6.703839|   -8.804436|    0.824005|    0.012017|
+-----------------------------------------------------------------------+
|Fixed CL Mode                           |Value                         |
+-----------------------------------------------------------------------+
|Current CL                              |0.824005                      |
|Target CL                               |0.824                         |
|Previous AOA                            |2.7904                        |
|Changed AoA by                          |-2.37437e-05                  |
+-----------------------------------------------------------------------+
+----------------------------------------------------------------+
|  Inner_Iter|    rms[Rho]|     rms[nu]|          CL|          CD|
+----------------------------------------------------------------+
|         802|   -4.817802|   -8.704886|    0.824005|    0.012017|
|         803|   -5.201645|   -8.752701|    0.824005|    0.012017|
|         804|   -5.443851|   -8.770270|    0.824006|    0.012017|
|         805|   -5.521769|   -8.781518|    0.824006|    0.012017|
|         806|   -5.575211|   -8.790641|    0.824006|    0.012017|
|         807|   -5.644710|   -8.798549|    0.824006|    0.012017|
|         808|   -5.730728|   -8.805463|    0.824006|    0.012017|
|         809|   -5.820864|   -8.811473|    0.824007|    0.012017|
|         810|   -5.899111|   -8.816610|    0.824007|    0.012017|
|         811|   -5.957219|   -8.820836|    0.824007|    0.012018|
|         812|   -5.996413|   -8.824149|    0.824007|    0.012018|
|         813|   -6.019961|   -8.826676|    0.824007|    0.012018|
|         814|   -6.031252|   -8.828638|    0.824007|    0.012018|
|         815|   -6.035985|   -8.830196|    0.824007|    0.012018|
|         816|   -6.040929|   -8.831429|    0.824008|    0.012018|
|         817|   -6.050764|   -8.832363|    0.824008|    0.012018|
|         818|   -6.066717|   -8.833030|    0.824008|    0.012018|
|         819|   -6.087108|   -8.833507|    0.824008|    0.012018|
|         820|   -6.108861|   -8.833891|    0.824008|    0.012018|
|         821|   -6.129355|   -8.834280|    0.824008|    0.012018|
|         822|   -6.147726|   -8.834727|    0.824008|    0.012018|
|         823|   -6.164795|   -8.835252|    0.824008|    0.012018|
|         824|   -6.181907|   -8.835861|    0.824008|    0.012018|
|         825|   -6.199829|   -8.836557|    0.824008|    0.012018|
|         826|   -6.218377|   -8.837355|    0.824008|    0.012018|
|         827|   -6.236669|   -8.838282|    0.824008|    0.012018|
|         828|   -6.253592|   -8.839371|    0.824008|    0.012018|
|         829|   -6.268190|   -8.840663|    0.824008|    0.012018|
|         830|   -6.279877|   -8.842173|    0.824008|    0.012018|
|         831|   -6.288551|   -8.843939|    0.824008|    0.012018|
|         832|   -6.294632|   -8.846004|    0.824008|    0.012018|
|         833|   -6.298996|   -8.848362|    0.824008|    0.012018|
|         834|   -6.302769|   -8.851006|    0.824008|    0.012018|
|         835|   -6.307058|   -8.853913|    0.824008|    0.012018|
|         836|   -6.312715|   -8.857050|    0.824008|    0.012018|
|         837|   -6.320216|   -8.860375|    0.824008|    0.012018|
|         838|   -6.329616|   -8.863841|    0.824008|    0.012018|
|         839|   -6.340582|   -8.867397|    0.824008|    0.012018|
|         840|   -6.352445|   -8.870996|    0.824008|    0.012018|
|         841|   -6.364310|   -8.874595|    0.824008|    0.012018|
|         842|   -6.375239|   -8.878160|    0.824007|    0.012018|
|         843|   -6.384478|   -8.881668|    0.824007|    0.012018|
|         844|   -6.391684|   -8.885106|    0.824007|    0.012018|
|         845|   -6.397024|   -8.888470|    0.824007|    0.012018|
|         846|   -6.401108|   -8.891765|    0.824007|    0.012018|
|         847|   -6.404773|   -8.895002|    0.824007|    0.012018|
|         848|   -6.408847|   -8.898192|    0.824007|    0.012018|
|         849|   -6.413961|   -8.901352|    0.824007|    0.012017|
|         850|   -6.420456|   -8.904482|    0.824006|    0.012017|
|         851|   -6.428379|   -8.907633|    0.824006|    0.012017|
|         852|   -6.437531|   -8.910784|    0.824006|    0.012017|
|         853|   -6.447546|   -8.913937|    0.824006|    0.012017|
|         854|   -6.457992|   -8.917080|    0.824006|    0.012017|
|         855|   -6.468463|   -8.920200|    0.824006|    0.012017|
|         856|   -6.478661|   -8.923280|    0.824006|    0.012017|
|         857|   -6.488436|   -8.926299|    0.824005|    0.012017|
|         858|   -6.497792|   -8.929236|    0.824005|    0.012017|
|         859|   -6.506848|   -8.932060|    0.824005|    0.012017|
|         860|   -6.515785|   -8.934743|    0.824005|    0.012017|
|         861|   -6.524791|   -8.937259|    0.824005|    0.012017|
|         862|   -6.534018|   -8.939587|    0.824005|    0.012017|
|         863|   -6.543557|   -8.941711|    0.824004|    0.012017|
|         864|   -6.553435|   -8.943626|    0.824004|    0.012017|
|         865|   -6.563626|   -8.945336|    0.824004|    0.012017|
|         866|   -6.574072|   -8.946863|    0.824004|    0.012017|
|         867|   -6.584693|   -8.948235|    0.824004|    0.012017|
|         868|   -6.595410|   -8.949493|    0.824004|    0.012017|
|         869|   -6.606149|   -8.950686|    0.824003|    0.012017|
|         870|   -6.616844|   -8.951868|    0.824003|    0.012017|
|         871|   -6.627431|   -8.953097|    0.824003|    0.012017|
|         872|   -6.637846|   -8.954430|    0.824003|    0.012017|
|         873|   -6.648020|   -8.955917|    0.824003|    0.012017|
|         874|   -6.657869|   -8.957603|    0.824003|    0.012017|
|         875|   -6.667302|   -8.959519|    0.824003|    0.012017|
|         876|   -6.676218|   -8.961683|    0.824003|    0.012017|
|         877|   -6.684513|   -8.964097|    0.824002|    0.012017|
|         878|   -6.692089|   -8.966748|    0.824002|    0.012017|
|         879|   -6.698861|   -8.969605|    0.824002|    0.012017|
|         880|   -6.704759|   -8.972619|    0.824002|    0.012017|
|         881|   -6.709740|   -8.975727|    0.824002|    0.012017|
|         882|   -6.713784|   -8.978853|    0.824002|    0.012017|
|         883|   -6.716899|   -8.981913|    0.824002|    0.012017|
|         884|   -6.719117|   -8.984817|    0.824002|    0.012017|
|         885|   -6.720495|   -8.987476|    0.824002|    0.012017|
|         886|   -6.721107|   -8.989809|    0.824002|    0.012017|
|         887|   -6.721041|   -8.991747|    0.824002|    0.012017|
|         888|   -6.720395|   -8.993239|    0.824002|    0.012017|
|         889|   -6.719273|   -8.994256|    0.824002|    0.012017|
|         890|   -6.717778|   -8.994797|    0.824002|    0.012017|
|         891|   -6.716013|   -8.994885|    0.824002|    0.012017|
|         892|   -6.714071|   -8.994570|    0.824002|    0.012017|
|         893|   -6.712042|   -8.993920|    0.824003|    0.012017|
|         894|   -6.710002|   -8.993022|    0.824003|    0.012017|
|         895|   -6.708022|   -8.991971|    0.824003|    0.012017|
|         896|   -6.706161|   -8.990867|    0.824003|    0.012017|
|         897|   -6.704469|   -8.989806|    0.824003|    0.012017|
|         898|   -6.702987|   -8.988877|    0.824003|    0.012017|
|         899|   -6.701749|   -8.988155|    0.824003|    0.012017|
|         900|   -6.700781|   -8.987695|    0.824003|    0.012017|
|         901|   -6.700104|   -8.987535|    0.824004|    0.012017|
+-----------------------------------------------------------------------+
|Fixed CL Mode                           |Value                         |
+-----------------------------------------------------------------------+
|Current CL                              |0.824004                      |
|Target CL                               |0.824                         |
|Previous AOA                            |2.79037                       |
[...]
|        5298|   -6.036792|   -7.957458|    0.824236|    0.012021|
|        5299|   -6.043460|   -7.961151|    0.824237|    0.012021|
|        5300|   -6.049743|   -7.964853|    0.824237|    0.012021|
|        5301|   -6.055600|   -7.968579|    0.824237|    0.012021|
|        5302|   -6.061003|   -7.972337|    0.824237|    0.012021|
|        5303|   -6.065935|   -7.976136|    0.824237|    0.012021|
|        5304|   -6.070392|   -7.979983|    0.824237|    0.012021|
|        5305|   -6.074382|   -7.983884|    0.824237|    0.012021|
|        5306|   -6.077922|   -7.987844|    0.824237|    0.012021|
|        5307|   -6.081041|   -7.991865|    0.824237|    0.012021|
|        5308|   -6.083779|   -7.995952|    0.824238|    0.012021|
|        5309|   -6.086181|   -8.000108|    0.824238|    0.012021|
|        5310|   -6.088298|   -8.004335|    0.824238|    0.012021|
|        5311|   -6.090184|   -8.008636|    0.824238|    0.012021|
|        5312|   -6.091898|   -8.013018|    0.824238|    0.012021|
|        5313|   -6.093495|   -8.017484|    0.824238|    0.012021|
|        5314|   -6.095031|   -8.022041|    0.824238|    0.012021|
|        5315|   -6.096558|   -8.026696|    0.824238|    0.012021|
|        5316|   -6.098124|   -8.031455|    0.824238|    0.012021|
|        5317|   -6.099774|   -8.036326|    0.824239|    0.012021|
|        5318|   -6.101545|   -8.041315|    0.824239|    0.012021|
|        5319|   -6.103471|   -8.046431|    0.824239|    0.012021|
|        5320|   -6.105576|   -8.051679|    0.824239|    0.012021|
|        5321|   -6.107882|   -8.057065|    0.824239|    0.012021|
|        5322|   -6.110400|   -8.062592|    0.824239|    0.012021|
|        5323|   -6.113136|   -8.068260|    0.824239|    0.012021|
|        5324|   -6.116091|   -8.074068|    0.824240|    0.012021|
|        5325|   -6.119257|   -8.080013|    0.824240|    0.012021|
|        5326|   -6.122621|   -8.086093|    0.824240|    0.012021|
|        5327|   -6.126164|   -8.092302|    0.824240|    0.012022|
|        5328|   -6.129861|   -8.098632|    0.824240|    0.012022|
|        5329|   -6.133682|   -8.105076|    0.824240|    0.012022|
|        5330|   -6.137595|   -8.111621|    0.824240|    0.012022|
|        5331|   -6.141561|   -8.118251|    0.824241|    0.012022|
|        5332|   -6.145541|   -8.124948|    0.824241|    0.012022|
|        5333|   -6.149494|   -8.131700|    0.824241|    0.012022|
|        5334|   -6.153379|   -8.138490|    0.824241|    0.012022|
|        5335|   -6.157156|   -8.145304|    0.824241|    0.012022|
|        5336|   -6.160788|   -8.152126|    0.824241|    0.012022|
|        5337|   -6.164242|   -8.158940|    0.824241|    0.012022|
|        5338|   -6.167488|   -8.165734|    0.824242|    0.012023|
|        5339|   -6.170507|   -8.172494|    0.824242|    0.012023|
|        5340|   -6.173283|   -8.179209|    0.824242|    0.012023|
|        5341|   -6.175809|   -8.185868|    0.824242|    0.012023|
|        5342|   -6.178086|   -8.192464|    0.824242|    0.012023|
|        5343|   -6.180125|   -8.198988|    0.824242|    0.012023|
|        5344|   -6.181941|   -8.205438|    0.824242|    0.012023|
|        5345|   -6.183560|   -8.211810|    0.824242|    0.012023|
|        5346|   -6.185010|   -8.218106|    0.824242|    0.012023|
|        5347|   -6.186327|   -8.224324|    0.824243|    0.012023|
|        5348|   -6.187549|   -8.230463|    0.824243|    0.012023|
|        5349|   -6.188718|   -8.236526|    0.824243|    0.012023|
|        5350|   -6.189876|   -8.242516|    0.824243|    0.012023|
|        5351|   -6.191067|   -8.248436|    0.824243|    0.012023|
|        5352|   -6.192332|   -8.254300|    0.824243|    0.012023|
|        5353|   -6.193710|   -8.260108|    0.824243|    0.012023|
|        5354|   -6.195239|   -8.265865|    0.824243|    0.012023|
|        5355|   -6.196953|   -8.271572|    0.824243|    0.012024|
|        5356|   -6.198883|   -8.277235|    0.824243|    0.012024|
|        5357|   -6.201055|   -8.282856|    0.824243|    0.012024|
|        5358|   -6.203491|   -8.288437|    0.824243|    0.012024|
|        5359|   -6.206209|   -8.293980|    0.824243|    0.012024|
|        5360|   -6.209220|   -8.299486|    0.824243|    0.012024|
|        5361|   -6.212534|   -8.304955|    0.824243|    0.012024|
|        5362|   -6.216152|   -8.310385|    0.824243|    0.012024|
|        5363|   -6.220072|   -8.315774|    0.824243|    0.012024|
|        5364|   -6.224289|   -8.321120|    0.824243|    0.012024|
|        5365|   -6.228789|   -8.326419|    0.824243|    0.012023|
|        5366|   -6.233556|   -8.331666|    0.824243|    0.012023|
|        5367|   -6.238569|   -8.336857|    0.824243|    0.012023|
|        5368|   -6.243802|   -8.341987|    0.824243|    0.012023|
|        5369|   -6.249224|   -8.347050|    0.824243|    0.012023|
|        5370|   -6.254800|   -8.352040|    0.824243|    0.012023|
|        5371|   -6.260492|   -8.356953|    0.824243|    0.012023|
|        5372|   -6.266258|   -8.361784|    0.824243|    0.012023|
|        5373|   -6.272053|   -8.366531|    0.824243|    0.012023|
|        5374|   -6.277831|   -8.371192|    0.824243|    0.012023|
|        5375|   -6.283544|   -8.375766|    0.824243|    0.012023|
|        5376|   -6.289144|   -8.380254|    0.824243|    0.012023|
|        5377|   -6.294586|   -8.384658|    0.824243|    0.012023|
|        5378|   -6.299822|   -8.388981|    0.824243|    0.012023|
|        5379|   -6.304813|   -8.393228|    0.824243|    0.012023|
|        5380|   -6.309521|   -8.397403|    0.824242|    0.012023|
|        5381|   -6.313913|   -8.401515|    0.824242|    0.012023|
|        5382|   -6.317964|   -8.405569|    0.824242|    0.012022|
|        5383|   -6.321655|   -8.409576|    0.824242|    0.012022|
|        5384|   -6.324974|   -8.413543|    0.824243|    0.012022|
|        5385|   -6.327915|   -8.417479|    0.824243|    0.012022|
|        5386|   -6.330481|   -8.421393|    0.824243|    0.012022|
|        5387|   -6.332680|   -8.425293|    0.824243|    0.012022|
|        5388|   -6.334526|   -8.429186|    0.824243|    0.012022|
|        5389|   -6.336038|   -8.433076|    0.824243|    0.012022|
|        5390|   -6.337239|   -8.436970|    0.824243|    0.012022|
|        5391|   -6.338154|   -8.440868|    0.824243|    0.012022|
|        5392|   -6.338809|   -8.444772|    0.824243|    0.012022|
|        5393|   -6.339232|   -8.448681|    0.824243|    0.012021|
|        5394|   -6.339451|   -8.452592|    0.824243|    0.012021|
|        5395|   -6.339490|   -8.456500|    0.824243|    0.012021|
|        5396|   -6.339376|   -8.460397|    0.824243|    0.012021|
|        5397|   -6.339129|   -8.464277|    0.824244|    0.012021|
|        5398|   -6.338771|   -8.468128|    0.824244|    0.012021|
|        5399|   -6.338319|   -8.471941|    0.824244|    0.012021|
|        5400|   -6.337788|   -8.475703|    0.824244|    0.012021|
|        5401|   -6.337190|   -8.479402|    0.824244|    0.012021|
|        5402|   -6.336537|   -8.483027|    0.824244|    0.012021|
|        5403|   -6.335837|   -8.486571|    0.824244|    0.012020|
|        5404|   -6.335095|   -8.490022|    0.824245|    0.012020|
|        5405|   -6.334318|   -8.493373|    0.824245|    0.012020|
|        5406|   -6.333509|   -8.496615|    0.824245|    0.012020|
|        5407|   -6.332672|   -8.499742|    0.824245|    0.012020|
|        5408|   -6.331809|   -8.502748|    0.824245|    0.012020|
|        5409|   -6.330923|   -8.505630|    0.824245|    0.012020|
|        5410|   -6.330016|   -8.508387|    0.824246|    0.012020|
|        5411|   -6.329090|   -8.511020|    0.824246|    0.012020|
|        5412|   -6.328148|   -8.513533|    0.824246|    0.012020|
|        5413|   -6.327193|   -8.515929|    0.824246|    0.012020|
|        5414|   -6.326228|   -8.518215|    0.824246|    0.012020|
|        5415|   -6.325257|   -8.520394|    0.824246|    0.012020|
|        5416|   -6.324284|   -8.522473|    0.824247|    0.012019|
|        5417|   -6.323315|   -8.524456|    0.824247|    0.012019|
|        5418|   -6.322355|   -8.526347|    0.824247|    0.012019|
|        5419|   -6.321411|   -8.528149|    0.824247|    0.012019|
|        5420|   -6.320490|   -8.529862|    0.824247|    0.012019|
|        5421|   -6.319599|   -8.531488|    0.824247|    0.012019|
|        5422|   -6.318749|   -8.533025|    0.824247|    0.012019|
|        5423|   -6.317948|   -8.534470|    0.824247|    0.012019|
|        5424|   -6.317206|   -8.535820|    0.824248|    0.012019|
|        5425|   -6.316534|   -8.537070|    0.824248|    0.012019|
|        5426|   -6.315945|   -8.538218|    0.824248|    0.012019|
|        5427|   -6.315449|   -8.539258|    0.824248|    0.012019|
|        5428|   -6.315061|   -8.540186|    0.824248|    0.012019|
|        5429|   -6.314793|   -8.541000|    0.824248|    0.012019|
|        5430|   -6.314659|   -8.541697|    0.824248|    0.012019|
|        5431|   -6.314672|   -8.542277|    0.824248|    0.012019|
|        5432|   -6.314848|   -8.542740|    0.824248|    0.012019|
|        5433|   -6.315200|   -8.543090|    0.824248|    0.012019|
|        5434|   -6.315741|   -8.543331|    0.824248|    0.012019|
|        5435|   -6.316485|   -8.543469|    0.824248|    0.012019|
|        5436|   -6.317446|   -8.543512|    0.824248|    0.012019|
|        5437|   -6.318633|   -8.543470|    0.824248|    0.012019|
|        5438|   -6.320059|   -8.543354|    0.824248|    0.012019|
|        5439|   -6.321733|   -8.543176|    0.824248|    0.012019|
|        5440|   -6.323663|   -8.542948|    0.824248|    0.012019|
|        5441|   -6.325855|   -8.542684|    0.824248|    0.012019|
|        5442|   -6.328313|   -8.542396|    0.824248|    0.012020|
|        5443|   -6.331039|   -8.542097|    0.824248|    0.012020|
|        5444|   -6.334033|   -8.541800|    0.824248|    0.012020|
|        5445|   -6.337291|   -8.541516|    0.824248|    0.012020|
|        5446|   -6.340808|   -8.541256|    0.824248|    0.012020|
|        5447|   -6.344573|   -8.541030|    0.824248|    0.012020|
|        5448|   -6.348575|   -8.540845|    0.824248|    0.012020|
|        5449|   -6.352798|   -8.540709|    0.824248|    0.012020|
|        5450|   -6.357223|   -8.540627|    0.824248|    0.012020|
|        5451|   -6.361825|   -8.540602|    0.824248|    0.012020|
|        5452|   -6.366580|   -8.540639|    0.824248|    0.012020|
|        5453|   -6.371456|   -8.540738|    0.824248|    0.012020|
|        5454|   -6.376421|   -8.540898|    0.824248|    0.012020|
|        5455|   -6.381437|   -8.541119|    0.824248|    0.012020|
|        5456|   -6.386465|   -8.541401|    0.824248|    0.012020|
|        5457|   -6.391463|   -8.541741|    0.824248|    0.012021|
|        5458|   -6.396386|   -8.542136|    0.824248|    0.012021|
|        5459|   -6.401193|   -8.542582|    0.824247|    0.012021|
|        5460|   -6.405835|   -8.543076|    0.824247|    0.012021|
|        5461|   -6.410270|   -8.543612|    0.824247|    0.012021|
|        5462|   -6.414455|   -8.544187|    0.824247|    0.012021|
|        5463|   -6.418349|   -8.544794|    0.824247|    0.012021|
|        5464|   -6.421917|   -8.545430|    0.824247|    0.012021|
|        5465|   -6.425127|   -8.546089|    0.824247|    0.012021|
|        5466|   -6.427956|   -8.546768|    0.824246|    0.012021|
|        5467|   -6.430383|   -8.547464|    0.824246|    0.012021|
|        5468|   -6.432399|   -8.548173|    0.824246|    0.012021|
|        5469|   -6.434000|   -8.548894|    0.824246|    0.012021|
|        5470|   -6.435188|   -8.549625|    0.824246|    0.012021|
|        5471|   -6.435977|   -8.550363|    0.824246|    0.012021|
|        5472|   -6.436384|   -8.551109|    0.824245|    0.012022|
|        5473|   -6.436433|   -8.551859|    0.824245|    0.012022|
|        5474|   -6.436152|   -8.552613|    0.824245|    0.012022|
|        5475|   -6.435574|   -8.553370|    0.824245|    0.012022|
|        5476|   -6.434736|   -8.554127|    0.824245|    0.012022|
|        5477|   -6.433679|   -8.554885|    0.824245|    0.012022|
|        5478|   -6.432441|   -8.555642|    0.824244|    0.012022|
|        5479|   -6.431064|   -8.556397|    0.824244|    0.012022|
|        5480|   -6.429589|   -8.557148|    0.824244|    0.012022|
|        5481|   -6.428054|   -8.557897|    0.824244|    0.012022|
|        5482|   -6.426499|   -8.558643|    0.824244|    0.012022|
|        5483|   -6.424957|   -8.559387|    0.824243|    0.012022|
|        5484|   -6.423463|   -8.560131|    0.824243|    0.012022|
|        5485|   -6.422048|   -8.560878|    0.824243|    0.012022|
|        5486|   -6.420738|   -8.561630|    0.824243|    0.012022|
|        5487|   -6.419559|   -8.562391|    0.824243|    0.012022|
|        5488|   -6.418533|   -8.563163|    0.824243|    0.012022|
|        5489|   -6.417679|   -8.563952|    0.824242|    0.012022|
|        5490|   -6.417015|   -8.564760|    0.824242|    0.012022|
|        5491|   -6.416553|   -8.565593|    0.824242|    0.012022|
|        5492|   -6.416305|   -8.566455|    0.824242|    0.012022|
|        5493|   -6.416281|   -8.567350|    0.824242|    0.012022|
|        5494|   -6.416488|   -8.568285|    0.824242|    0.012022|
|        5495|   -6.416932|   -8.569265|    0.824242|    0.012022|
|        5496|   -6.417615|   -8.570295|    0.824241|    0.012022|
|        5497|   -6.418539|   -8.571381|    0.824241|    0.012022|
|        5498|   -6.419705|   -8.572529|    0.824241|    0.012022|
|        5499|   -6.421112|   -8.573744|    0.824241|    0.012007|
+-----------------------------------------------------------------------+
|Fixed CL Mode (Finite Difference)       |Value                         |
+-----------------------------------------------------------------------+
|Delta CL / Delta AoA                    |0.241178                      |
|Delta CD / Delta CL                     |0.0173783                     |
|Delta CMz / Delta CL                    |-0.000528741                  |
+-----------------------------------------------------------------------+
Writing Flow Meta-Data file: flow.meta

----------------------------- Solver Exit -------------------------------

Maximum number of iterations reached (ITER = 5500) before convergence.
+-----------------------------------------------------------------------+
|      Convergence Field     |     Value    |   Criterion  |  Converged |
+-----------------------------------------------------------------------+
|                    rms[Rho]|      -6.42111|         < -12|          No|
+-----------------------------------------------------------------------+
-------------------------------------------------------------------------

--------------------------- Finalizing Solver ---------------------------
Deleted CNumerics container.
Deleted CIntegration container.
Deleted CSolver container.
Deleted CIteration container.
Deleted CInterface container.
Deleted CGeometry container.
Deleted CFreeFormDefBox class.
Deleted CSurfaceMovement class.
Deleted CVolumetricMovement class.
Deleted CConfig container.
Deleted nInst container.
Deleted COutput class.
-------------------------------------------------------------------------

------------------------- Exit Success (SU2_CFD) ------------------------


-------------------------------------------------------------------------
|    ___ _   _ ___                                                      |
|   / __| | | |_  )   Release 8.0.0 "Harrier"                           |
|   \__ \ |_| |/ /                                                      |
|   |___/\___//___|   Suite (Solution Exporting Code)                   |
|                                                                       |
-------------------------------------------------------------------------
| SU2 Project Website: https://su2code.github.io                        |
|                                                                       |
| The SU2 Project is maintained by the SU2 Foundation                   |
| (http://su2foundation.org)                                            |
-------------------------------------------------------------------------
| Copyright 2012-2023, SU2 Contributors                                 |
|                                                                       |
| SU2 is free software; you can redistribute it and/or                  |
| modify it under the terms of the GNU Lesser General Public            |
| License as published by the Free Software Foundation; either          |
| version 2.1 of the License, or (at your option) any later version.    |
|                                                                       |
| SU2 is distributed in the hope that it will be useful,                |
| but WITHOUT ANY WARRANTY; without even the implied warranty of        |
| MERCHANTABILITY or FITNESS FOR A PARTICULAR PURPOSE. See the GNU      |
| Lesser General Public License for more details.                       |
|                                                                       |
| You should have received a copy of the GNU Lesser General Public      |
| License along with SU2. If not, see <http://www.gnu.org/licenses/>.   |
-------------------------------------------------------------------------

----------------- Physical Case Definition ( Zone 0 ) -------------------
Input mesh file name: mesh_RAE2822_turb_deform.su2

-------------------- Output Information ( Zone 0 ) ----------------------
The tabular file format is CSV (.csv).
Flow variables file name: flow.

------------- Config File Boundary Information ( Zone 0 ) ---------------
+-----------------------------------------------------------------------+
|                        Marker Type|                        Marker Name|
+-----------------------------------------------------------------------+
|                          Far-field|                           FARFIELD|
+-----------------------------------------------------------------------+
|                     Heat flux wall|                            AIRFOIL|
+-----------------------------------------------------------------------+
Two dimensional problem.
13937 grid points before partitioning.
22842 volume elements before partitioning.
2 surface markers.
192 boundary elements in index 0 (Marker = AIRFOIL).
40 boundary elements in index 1 (Marker = FARFIELD).
Executing the partitioning functions.
Building the graph adjacency structure.
Calling ParMETIS... graph partitioning complete (831 edge cuts).
Distributing ParMETIS coloring.
Rebalancing vertices.
Rebalancing volume element connectivity.
Rebalancing markers and surface elements.
14875 vertices including ghost points. 
23674 interior elements including halo cells. 
18780 triangles.
4894 quadrilaterals.
Establishing MPI communication patterns.
Identify vertices.
Storing a mapping from global to local point index.

------------------------- Solution Postprocessing -----------------------
Reading and storing the solution from restart_flow.
Volume output fields: COORDINATES, SOLUTION
  Info: Ignoring the following screen output fields:
  RMS_DENSITY, RMS_NU_TILDE, LIFT, DRAG
Screen output fields: INNER_ITER
  Info: Ignoring the following history output groups:
  RMS_RES, AERO_COEFF
History output group(s): ITER
Warning: No (valid) fields chosen for convergence monitoring. Convergence monitoring inactive.
Warning: No (valid) fields chosen for time convergence monitoring. Time convergence monitoring inactive.
|Paraview                           |flow.vtu                           |
|Paraview surface                   |surface_flow.vtu                   |
|CSV file                           |surface_flow.csv                   |

------------------------- Finalize Solver -------------------------
Deleted CGeometry container.
Deleted CSolver class.
Deleted CConfig container.
Deleted COutput class.

Completed in 0.015372 seconds on 6 cores.

------------------------- Exit Success (SU2_SOL) ------------------------

