
-------------------------------------------------------------------------
|    ___ _   _ ___                                                      |
|   / __| | | |_  )   Release 8.0.0 "Harrier"                           |
|   \__ \ |_| |/ /                                                      |
|   |___/\___//___|   Suite (Computational Fluid Dynamics Code)         |
|                                                                       |
-------------------------------------------------------------------------
| SU2 Project Website: https://su2code.github.io                        |
|                                                                       |
| The SU2 Project is maintained by the SU2 Foundation                   |
| (http://su2foundation.org)                                            |
-------------------------------------------------------------------------
| Copyright 2012-2023, SU2 Contributors                                 |
|                                                                       |
| SU2 is free software; you can redistribute it and/or                  |
| modify it under the terms of the GNU Lesser General Public            |
| License as published by the Free Software Foundation; either          |
| version 2.1 of the License, or (at your option) any later version.    |
|                                                                       |
| SU2 is distributed in the hope that it will be useful,                |
| but WITHOUT ANY WARRANTY; without even the implied warranty of        |
| MERCHANTABILITY or FITNESS FOR A PARTICULAR PURPOSE. See the GNU      |
| Lesser General Public License for more details.                       |
|                                                                       |
| You should have received a copy of the GNU Lesser General Public      |
| License along with SU2. If not, see <http://www.gnu.org/licenses/>.   |
-------------------------------------------------------------------------

Parsing config file for zone 0

----------------- Physical Case Definition ( Zone 0 ) -------------------
Compressible RANS equations.
Turbulence model: Spalart-Allmaras-noft2
Hybrid RANS/LES: No Hybrid RANS/LES
Mach number: 0.734.
Angle of attack (AoA): 2.31 deg, and angle of sideslip (AoS): 0 deg.
Reynolds number: 6.5e+06. Reference length 1.
Fixed CL mode, target value: 0.824.
Reading and writing binary SU2 native restart files.
Read flow solution from: solution_flow.dat.
Dimensional simulation.
The reference area is 1 m^2.
The semi-span will be computed using the max y(3D) value.
The reference length is 1 m.
Reference origin for moment evaluation is (0.25, 0, 0).
Surface(s) where the force coefficients are evaluated: AIRFOIL.

Surface(s) plotted in the output file: AIRFOIL.
Surface(s) affected by the design variables: AIRFOIL.
Input mesh file name: mesh_RAE2822_turb_deform.su2

--------------- Space Numerical Integration ( Zone 0 ) ------------------
Jameson-Schmidt-Turkel scheme (2nd order in space) for the flow inviscid terms.
JST viscous coefficients (2nd & 4th): 0.5, 0.02.
The method includes a grid stretching correction (p = 0.3).
Scalar upwind solver for the turbulence model.
First order integration in space.
Average of gradients with correction (viscous flow terms).
Average of gradients with correction (viscous turbulence terms).
Gradient for viscous and source terms: inverse-distance weighted Least-Squares.

--------------- Time Numerical Integration  ( Zone 0 ) ------------------
Local time stepping (steady state simulation).
Euler implicit method for the flow equations.
FGMRES is used for solving the linear system.
Using a ILU(0) preconditioning.
Convergence criteria of the linear solver: 1e-06.
Max number of linear iterations: 10.
No CFL adaptation.
Courant-Friedrichs-Lewy number:       10
Euler implicit time integration for the turbulence model.

------------------ Convergence Criteria  ( Zone 0 ) ---------------------
Maximum number of solver subiterations: 5500.
Begin convergence monitoring at iteration 10.
Residual minimum value: 1e-12.
Cauchy series min. value: 1e-06.
Number of Cauchy elements: 100.
Begin windowed time average at iteration 0.

-------------------- Output Information ( Zone 0 ) ----------------------
File writing frequency: 
+------------------------------------+
|                     File| Frequency|
+------------------------------------+
|                  RESTART|     10000|
|                 PARAVIEW|     10000|
|         SURFACE_PARAVIEW|     10000|
|              SURFACE_CSV|     10000|
+------------------------------------+
Writing the convergence history file every 1 inner iterations.
Writing the screen convergence history every 1 inner iterations.
The tabular file format is CSV (.csv).
Convergence history file name: history_direct.
Forces breakdown file name: forces_breakdown.dat.
Surface file name: surface_flow.
Volume file name: flow.
Restart file name: restart_flow.dat.

------------- Config File Boundary Information ( Zone 0 ) ---------------
+-----------------------------------------------------------------------+
|                        Marker Type|                        Marker Name|
+-----------------------------------------------------------------------+
|                          Far-field|                           FARFIELD|
+-----------------------------------------------------------------------+
|                     Heat flux wall|                            AIRFOIL|
+-----------------------------------------------------------------------+

-------------------- Output Preprocessing ( Zone 0 ) --------------------

WARNING: SURFACE_PRESSURE_DROP can only be computed for at least 2 surfaces (outlet, inlet, ...)

Screen output fields: INNER_ITER, RMS_DENSITY, RMS_NU_TILDE, LIFT, DRAG
History output group(s): ITER, RMS_RES, AERO_COEFF
Convergence field(s): RMS_DENSITY
Warning: No (valid) fields chosen for time convergence monitoring. Time convergence monitoring inactive.
Volume output fields: COORDINATES, SOLUTION, PRIMITIVE

------------------- Geometry Preprocessing ( Zone 0 ) -------------------
Two dimensional problem.
13937 grid points before partitioning.
22842 volume elements before partitioning.
2 surface markers.
192 boundary elements in index 0 (Marker = AIRFOIL).
40 boundary elements in index 1 (Marker = FARFIELD).
Executing the partitioning functions.
Building the graph adjacency structure.
Calling ParMETIS... graph partitioning complete (831 edge cuts).
Distributing ParMETIS coloring.
Rebalancing vertices.
Rebalancing volume element connectivity.
Rebalancing markers and surface elements.
14875 vertices including ghost points. 
23674 interior elements including halo cells. 
18780 triangles.
4894 quadrilaterals.
Establishing MPI communication patterns.
Setting point connectivity.
Renumbering points (Reverse Cuthill McKee Ordering).
Recomputing point connectivity.
Setting element connectivity.
Checking the numerical grid orientation.
All volume elements are correctly orientend.
All surface elements are correctly orientend.
Identifying edges and vertices.
Setting the control volume structure.
Area of the computational grid: 32209.9.
Searching for the closest normal neighbors to the surfaces.
Storing a mapping from global to local point index.
Compute the surface curvature.
Max K: 172.982. Mean K: 7.8041. Standard deviation K: 23.8165.
Checking for periodicity.
Computing mesh quality statistics for the dual control volumes.
+--------------------------------------------------------------+
|           Mesh Quality Metric|        Minimum|        Maximum|
+--------------------------------------------------------------+
|    Orthogonality Angle (deg.)|        75.1507|        89.9991|
|     CV Face Area Aspect Ratio|        1.00371|        3358.53|
|           CV Sub-Volume Ratio|        1.00046|        1215.05|
+--------------------------------------------------------------+
Finding max control volume width.
Communicating number of neighbors.
Wetted area = 2.02193 m.
Area projection in the x-plane = 0.124815 m, y-plane = 0.995873 m.
Max. coordinate in the x-direction = 1 m, y-direction = 0.0621218 m.
Min. coordinate in the x-direction = 0 m, y-direction = -0.0599094 m.
Computing wall distances.

-------------------- Solver Preprocessing ( Zone 0 ) --------------------
WARNING: AoA in the solution file (2.79038 deg.) +
         AoA offset in mesh file (0 deg.) = 2.79038 deg.
WARNING: SU2 will use the dCD/dCL provided in the direct solution file: 0.0176476.
WARNING: SU2 will use the dCMz/dCL provided in the direct solution file: 0.00218483.
Viscous flow: Computing pressure using the ideal gas law
based on the free-stream temperature and a density computed
from the Reynolds number.
Force coefficients computed using free-stream values.

-- Models:
+------------------------------------------------------------------------------+
|          Viscosity Model|        Conductivity Model|              Fluid Model|
+------------------------------------------------------------------------------+
|               SUTHERLAND|          CONSTANT_PRANDTL|             STANDARD_AIR|
+------------------------------------------------------------------------------+
-- Fluid properties:
+------------------------------------------------------------------------------+
|                  Name|    Dim. value|    Ref. value|      Unit|Non-dim. value|
+------------------------------------------------------------------------------+
|        Ref. Viscosity|     1.716e-05|             1|   N.s/m^2|     1.716e-05|
|      Sutherland Temp.|        273.15|             1|         K|        273.15|
|     Sutherland Const.|         110.4|             1|         K|         110.4|
+------------------------------------------------------------------------------+
|        Prandtl (Lam.)|             -|             -|         -|          0.71|
|       Prandtl (Turb.)|             -|             -|         -|           0.9|
+------------------------------------------------------------------------------+
|          Gas Constant|       287.058|             1|  N.m/kg.K|       287.058|
|      Spec. Heat Ratio|             -|             -|         -|           1.4|
+------------------------------------------------------------------------------+
-- Initial and free-stream conditions:
+------------------------------------------------------------------------------+
|                  Name|    Dim. value|    Ref. value|      Unit|Non-dim. value|
+------------------------------------------------------------------------------+
|       Static Pressure|         38515|             1|        Pa|         38515|
|               Density|      0.465631|             1|    kg/m^3|      0.465631|
|           Temperature|        288.15|             1|         K|        288.15|
|          Total Energy|        237984|             1|   m^2/s^2|        237984|
|            Velocity-X|       249.482|             1|       m/s|       249.482|
|            Velocity-Y|       12.1597|             1|       m/s|       12.1597|
|    Velocity Magnitude|       249.778|             1|       m/s|       249.778|
+------------------------------------------------------------------------------+
|             Viscosity|    1.7893e-05|             1|   N.s/m^2|    1.7893e-05|
|          Conductivity|             -|             1|   W/m^2.K|             -|
|     Turb. Kin. Energy|       233.959|             1|   m^2/s^2|       233.959|
|     Spec. Dissipation|        608834|             1|       1/s|        608834|
+------------------------------------------------------------------------------+
|           Mach Number|             -|             -|         -|         0.734|
|       Reynolds Number|             -|             -|         -|       6.5e+06|
+------------------------------------------------------------------------------+
Initialize Jacobian structure (Navier-Stokes). MG level: 0.
Initialize Jacobian structure (SA model).

------------------- Numerics Preprocessing ( Zone 0 ) -------------------

----------------- Integration Preprocessing ( Zone 0 ) ------------------

------------------- Iteration Preprocessing ( Zone 0 ) ------------------
Euler/Navier-Stokes/RANS fluid iteration.

------------------------------ Begin Solver -----------------------------

Simulation Run using the Single-zone Driver
WARNING: SU2 was not compiled for an AVX-capable architecture. Performance could be better,
         see https://su2code.github.io/docs_v7/Build-SU2-Linux-MacOS/#compiler-optimizations
+----------------------------------------------------------------+
|  Inner_Iter|    rms[Rho]|     rms[nu]|          CL|          CD|
+----------------------------------------------------------------+
|           0|   -5.081676|   -6.298319|    0.824008|    0.011944|
|           1|   -5.138167|   -6.395983|    0.824003|    0.011936|
|           2|   -5.197791|   -6.507019|    0.823992|    0.011935|
|           3|   -5.243264|   -6.623986|    0.823980|    0.011936|
|           4|   -5.275326|   -6.738871|    0.823969|    0.011937|
|           5|   -5.296395|   -6.840833|    0.823962|    0.011938|
|           6|   -5.308307|   -6.916545|    0.823958|    0.011937|
|           7|   -5.313426|   -6.956320|    0.823957|    0.011936|
|           8|   -5.313936|   -6.962687|    0.823958|    0.011934|
|           9|   -5.310807|   -6.949047|    0.823961|    0.011933|
|          10|   -5.303980|   -6.929329|    0.823966|    0.011933|
|          11|   -5.293347|   -6.911907|    0.823973|    0.011933|
|          12|   -5.279468|   -6.900192|    0.823982|    0.011935|
|          13|   -5.263588|   -6.894849|    0.823991|    0.011937|
|          14|   -5.247271|   -6.895088|    0.824001|    0.011940|
|          15|   -5.232033|   -6.898879|    0.824010|    0.011944|
|          16|   -5.219076|   -6.902782|    0.824018|    0.011949|
|          17|   -5.209125|   -6.902353|    0.824024|    0.011953|
|          18|   -5.202339|   -6.893866|    0.824029|    0.011958|
|          19|   -5.198331|   -6.876563|    0.824031|    0.011962|
|          20|   -5.196291|   -6.853222|    0.824032|    0.011966|
|          21|   -5.195215|   -6.828425|    0.824031|    0.011970|
|          22|   -5.194184|   -6.806337|    0.824028|    0.011973|
|          23|   -5.192580|   -6.789649|    0.824024|    0.011976|
|          24|   -5.190177|   -6.779576|    0.824019|    0.011979|
|          25|   -5.187061|   -6.776276|    0.824014|    0.011981|
|          26|   -5.183478|   -6.779155|    0.824008|    0.011982|
|          27|   -5.179683|   -6.787119|    0.824002|    0.011984|
|          28|   -5.175857|   -6.798747|    0.823997|    0.011985|
|          29|   -5.172097|   -6.812421|    0.823992|    0.011986|
|          30|   -5.168447|   -6.826482|    0.823987|    0.011986|
|          31|   -5.164930|   -6.839416|    0.823982|    0.011987|
|          32|   -5.161568|   -6.850052|    0.823978|    0.011988|
|          33|   -5.158390|   -6.857701|    0.823974|    0.011988|
|          34|   -5.155421|   -6.862187|    0.823971|    0.011989|
|          35|   -5.152677|   -6.863751|    0.823968|    0.011989|
|          36|   -5.150164|   -6.862869|    0.823964|    0.011989|
|          37|   -5.147873|   -6.860083|    0.823961|    0.011990|
|          38|   -5.145786|   -6.855879|    0.823958|    0.011990|
|          39|   -5.143886|   -6.850647|    0.823954|    0.011991|
|          40|   -5.142153|   -6.844691|    0.823950|    0.011991|
|          41|   -5.140573|   -6.838273|    0.823946|    0.011991|
|          42|   -5.139134|   -6.831656|    0.823941|    0.011992|
|          43|   -5.137824|   -6.825132|    0.823936|    0.011992|
|          44|   -5.136634|   -6.819026|    0.823931|    0.011992|
|          45|   -5.135549|   -6.813679|    0.823926|    0.011992|
|          46|   -5.134550|   -6.809411|    0.823920|    0.011993|
|          47|   -5.133618|   -6.806497|    0.823915|    0.011993|
|          48|   -5.132727|   -6.805127|    0.823909|    0.011993|
|          49|   -5.131858|   -6.805393|    0.823903|    0.011993|
|          50|   -5.130994|   -6.807276|    0.823898|    0.011993|
|          51|   -5.130126|   -6.810649|    0.823893|    0.011993|
|          52|   -5.129260|   -6.815287|    0.823888|    0.011992|
|          53|   -5.128412|   -6.820891|    0.823884|    0.011992|
|          54|   -5.127612|   -6.827115|    0.823880|    0.011992|
|          55|   -5.126893|   -6.833597|    0.823876|    0.011992|
|          56|   -5.126305|   -6.840000|    0.823873|    0.011992|
|          57|   -5.125893|   -6.846038|    0.823870|    0.011991|
|          58|   -5.125696|   -6.851502|    0.823868|    0.011991|
|          59|   -5.125745|   -6.856269|    0.823866|    0.011990|
|          60|   -5.126054|   -6.860302|    0.823864|    0.011990|
|          61|   -5.126623|   -6.863636|    0.823862|    0.011990|
|          62|   -5.127437|   -6.866365|    0.823861|    0.011989|
|          63|   -5.128471|   -6.868616|    0.823860|    0.011989|
|          64|   -5.129689|   -6.870535|    0.823859|    0.011988|
|          65|   -5.131061|   -6.872269|    0.823858|    0.011988|
|          66|   -5.132557|   -6.873952|    0.823857|    0.011987|
|          67|   -5.134161|   -6.875694|    0.823856|    0.011986|
|          68|   -5.135865|   -6.877574|    0.823856|    0.011986|
|          69|   -5.137672|   -6.879636|    0.823855|    0.011985|
|          70|   -5.139593|   -6.881887|    0.823854|    0.011985|
|          71|   -5.141637|   -6.884304|    0.823854|    0.011984|
|          72|   -5.143813|   -6.886841|    0.823853|    0.011984|
|          73|   -5.146124|   -6.889444|    0.823853|    0.011983|
|          74|   -5.148562|   -6.892055|    0.823853|    0.011983|
|          75|   -5.151116|   -6.894634|    0.823852|    0.011982|
|          76|   -5.153769|   -6.897161|    0.823852|    0.011982|
|          77|   -5.156504|   -6.899641|    0.823852|    0.011982|
|          78|   -5.159309|   -6.902103|    0.823851|    0.011981|
|          79|   -5.162175|   -6.904596|    0.823851|    0.011981|
|          80|   -5.165106|   -6.907178|    0.823851|    0.011981|
|          81|   -5.168111|   -6.909915|    0.823850|    0.011981|
|          82|   -5.171205|   -6.912865|    0.823850|    0.011980|
|          83|   -5.174404|   -6.916080|    0.823849|    0.011980|
|          84|   -5.177722|   -6.919596|    0.823849|    0.011980|
|          85|   -5.181163|   -6.923437|    0.823848|    0.011980|
|          86|   -5.184722|   -6.927611|    0.823848|    0.011980|
|          87|   -5.188381|   -6.932119|    0.823847|    0.011980|
|          88|   -5.192106|   -6.936951|    0.823846|    0.011979|
|          89|   -5.195856|   -6.942092|    0.823846|    0.011979|
|          90|   -5.199581|   -6.947520|    0.823845|    0.011979|
|          91|   -5.203225|   -6.953215|    0.823844|    0.011979|
|          92|   -5.206736|   -6.959156|    0.823844|    0.011979|
|          93|   -5.210068|   -6.965322|    0.823843|    0.011979|
|          94|   -5.213183|   -6.971694|    0.823843|    0.011979|
|          95|   -5.216056|   -6.978257|    0.823843|    0.011979|
|          96|   -5.218675|   -6.984991|    0.823843|    0.011979|
|          97|   -5.221042|   -6.991880|    0.823843|    0.011979|
|          98|   -5.223170|   -6.998907|    0.823843|    0.011979|
|          99|   -5.225086|   -7.006052|    0.823843|    0.011979|
|         100|   -5.226823|   -7.013292|    0.823844|    0.011979|
|         101|   -5.228421|   -7.020598|    0.823844|    0.011991|
+-----------------------------------------------------------------------+
|Fixed CL Mode                           |Value                         |
+-----------------------------------------------------------------------+
|Current CL                              |0.823844                      |
|Target CL                               |0.824                         |
|Previous AOA                            |2.79038                       |
|Changed AoA by                          |0.00078138                    |
+-----------------------------------------------------------------------+
+----------------------------------------------------------------+
|  Inner_Iter|    rms[Rho]|     rms[nu]|          CL|          CD|
+----------------------------------------------------------------+
|         102|   -3.300514|   -6.992636|    0.823845|    0.011991|
|         103|   -3.685483|   -7.016875|    0.823846|    0.011991|
|         104|   -3.931579|   -7.029098|    0.823847|    0.011992|
|         105|   -4.011950|   -7.038874|    0.823848|    0.011992|
|         106|   -4.066285|   -7.047741|    0.823849|    0.011993|
|         107|   -4.136395|   -7.056026|    0.823851|    0.011994|
|         108|   -4.222833|   -7.063790|    0.823852|    0.011994|
|         109|   -4.312463|   -7.071058|    0.823853|    0.011995|
|         110|   -4.388256|   -7.077830|    0.823854|    0.011996|
|         111|   -4.441941|   -7.084093|    0.823855|    0.011996|
|         112|   -4.475936|   -7.089854|    0.823856|    0.011997|
|         113|   -4.494900|   -7.095161|    0.823857|    0.011998|
|         114|   -4.503111|   -7.100091|    0.823858|    0.011999|
|         115|   -4.506335|   -7.104707|    0.823858|    0.012000|
|         116|   -4.510798|   -7.109032|    0.823859|    0.012000|
|         117|   -4.520585|   -7.113068|    0.823859|    0.012001|
|         118|   -4.536549|   -7.116820|    0.823859|    0.012002|
|         119|   -4.556853|   -7.120307|    0.823859|    0.012003|
|         120|   -4.578387|   -7.123570|    0.823859|    0.012004|
|         121|   -4.598542|   -7.126648|    0.823859|    0.012005|
|         122|   -4.616460|   -7.129576|    0.823858|    0.012005|
|         123|   -4.632967|   -7.132382|    0.823858|    0.012006|
|         124|   -4.649444|   -7.135092|    0.823857|    0.012007|
|         125|   -4.666755|   -7.137732|    0.823857|    0.012008|
|         126|   -4.684871|   -7.140331|    0.823856|    0.012008|
|         127|   -4.703085|   -7.142917|    0.823855|    0.012009|
|         128|   -4.720419|   -7.145526|    0.823855|    0.012010|
|         129|   -4.735955|   -7.148186|    0.823854|    0.012010|
|         130|   -4.749030|   -7.150922|    0.823854|    0.012011|
|         131|   -4.759365|   -7.153759|    0.823853|    0.012012|
|         132|   -4.767162|   -7.156724|    0.823853|    0.012013|
|         133|   -4.773096|   -7.159845|    0.823853|    0.012013|
|         134|   -4.778167|   -7.163145|    0.823852|    0.012014|
|         135|   -4.783436|   -7.166639|    0.823852|    0.012015|
|         136|   -4.789774|   -7.170335|    0.823852|    0.012016|
|         137|   -4.797714|   -7.174243|    0.823853|    0.012016|
|         138|   -4.807384|   -7.178366|    0.823853|    0.012017|
|         139|   -4.818517|   -7.182707|    0.823853|    0.012018|
|         140|   -4.830502|   -7.187262|    0.823854|    0.012019|
|         141|   -4.842486|   -7.192022|    0.823855|    0.012020|
|         142|   -4.853547|   -7.196978|    0.823856|    0.012021|
|         143|   -4.862928|   -7.202114|    0.823857|    0.012021|
|         144|   -4.870260|   -7.207413|    0.823858|    0.012022|
|         145|   -4.875674|   -7.212855|    0.823859|    0.012023|
|         146|   -4.879743|   -7.218422|    0.823861|    0.012024|
|         147|   -4.883276|   -7.224090|    0.823863|    0.012025|
|         148|   -4.887079|   -7.229839|    0.823864|    0.012026|
|         149|   -4.891771|   -7.235658|    0.823866|    0.012027|
|         150|   -4.897684|   -7.241519|    0.823869|    0.012028|
|         151|   -4.904860|   -7.247398|    0.823871|    0.012029|
|         152|   -4.913090|   -7.253280|    0.823873|    0.012029|
|         153|   -4.922005|   -7.259146|    0.823876|    0.012030|
|         154|   -4.931170|   -7.264987|    0.823879|    0.012031|
|         155|   -4.940187|   -7.270796|    0.823882|    0.012032|
|         156|   -4.948763|   -7.276571|    0.823886|    0.012033|
|         157|   -4.956761|   -7.282306|    0.823889|    0.012033|
|         158|   -4.964196|   -7.288003|    0.823893|    0.012034|
|         159|   -4.971195|   -7.293666|    0.823897|    0.012035|
|         160|   -4.977949|   -7.299296|    0.823901|    0.012036|
|         161|   -4.984652|   -7.304896|    0.823905|    0.012036|
|         162|   -4.991464|   -7.310468|    0.823910|    0.012037|
|         163|   -4.998487|   -7.316013|    0.823915|    0.012037|
|         164|   -5.005768|   -7.321530|    0.823920|    0.012038|
|         165|   -5.013306|   -7.327019|    0.823925|    0.012038|
|         166|   -5.021070|   -7.332477|    0.823930|    0.012039|
|         167|   -5.029017|   -7.337900|    0.823935|    0.012039|
|         168|   -5.037104|   -7.343278|    0.823940|    0.012040|
|         169|   -5.045297|   -7.348593|    0.823945|    0.012040|
|         170|   -5.053570|   -7.353819|    0.823951|    0.012040|
|         171|   -5.061903|   -7.358921|    0.823956|    0.012041|
|         172|   -5.070278|   -7.363854|    0.823961|    0.012041|
|         173|   -5.078676|   -7.368559|    0.823966|    0.012041|
|         174|   -5.087064|   -7.372966|    0.823971|    0.012042|
|         175|   -5.095406|   -7.377002|    0.823975|    0.012042|
|         176|   -5.103652|   -7.380588|    0.823979|    0.012042|
|         177|   -5.111746|   -7.383649|    0.823983|    0.012042|
|         178|   -5.119626|   -7.386106|    0.823987|    0.012042|
|         179|   -5.127226|   -7.387894|    0.823990|    0.012042|
|         180|   -5.134481|   -7.388958|    0.823993|    0.012042|
|         181|   -5.141327|   -7.389262|    0.823996|    0.012042|
|         182|   -5.147704|   -7.388786|    0.823998|    0.012042|
|         183|   -5.153560|   -7.387546|    0.824000|    0.012042|
|         184|   -5.158854|   -7.385589|    0.824001|    0.012042|
|         185|   -5.163556|   -7.382990|    0.824002|    0.012041|
|         186|   -5.167651|   -7.379845|    0.824003|    0.012041|
|         187|   -5.171141|   -7.376266|    0.824003|    0.012041|
|         188|   -5.174044|   -7.372372|    0.824003|    0.012041|
|         189|   -5.176396|   -7.368290|    0.824003|    0.012040|
|         190|   -5.178251|   -7.364143|    0.824002|    0.012040|
|         191|   -5.179672|   -7.360050|    0.824000|    0.012039|
|         192|   -5.180739|   -7.356116|    0.823999|    0.012039|
|         193|   -5.181535|   -7.352431|    0.823997|    0.012038|
|         194|   -5.182150|   -7.349072|    0.823995|    0.012038|
|         195|   -5.182673|   -7.346104|    0.823992|    0.012037|
|         196|   -5.183193|   -7.343577|    0.823990|    0.012037|
|         197|   -5.183793|   -7.341520|    0.823987|    0.012036|
|         198|   -5.184552|   -7.339947|    0.823984|    0.012036|
|         199|   -5.185543|   -7.338860|    0.823981|    0.012035|
|         200|   -5.186828|   -7.338248|    0.823978|    0.012035|
|         201|   -5.188465|   -7.338088|    0.823975|    0.012036|
+-----------------------------------------------------------------------+
|Fixed CL Mode                           |Value                         |
+-----------------------------------------------------------------------+
|Current CL                              |0.823975                      |
|Target CL                               |0.824                         |
|Previous AOA                            |2.79117                       |
|Changed AoA by                          |0.000108963                   |
+-----------------------------------------------------------------------+
+----------------------------------------------------------------+
|  Inner_Iter|    rms[Rho]|     rms[nu]|          CL|          CD|
+----------------------------------------------------------------+
|         202|   -4.153919|   -7.335034|    0.823972|    0.012035|
|         203|   -4.524579|   -7.337221|    0.823969|    0.012034|
|         204|   -4.737780|   -7.338603|    0.823965|    0.012034|
|         205|   -4.802954|   -7.340040|    0.823962|    0.012033|
|         206|   -4.848918|   -7.341603|    0.823959|    0.012033|
|         207|   -4.905231|   -7.343251|    0.823956|    0.012032|
|         208|   -4.968891|   -7.344919|    0.823953|    0.012031|
|         209|   -5.028861|   -7.346540|    0.823950|    0.012031|
|         210|   -5.076280|   -7.348047|    0.823947|    0.012030|
|         211|   -5.110307|   -7.349386|    0.823945|    0.012030|
|         212|   -5.134458|   -7.350507|    0.823942|    0.012029|
|         213|   -5.151421|   -7.351370|    0.823940|    0.012029|
|         214|   -5.162818|   -7.351950|    0.823938|    0.012028|
|         215|   -5.170770|   -7.352235|    0.823936|    0.012028|
|         216|   -5.177928|   -7.352224|    0.823934|    0.012027|
|         217|   -5.186357|   -7.351917|    0.823932|    0.012027|
|         218|   -5.196775|   -7.351329|    0.823931|    0.012026|
|         219|   -5.208673|   -7.350492|    0.823930|    0.012026|
|         220|   -5.221016|   -7.349435|    0.823929|    0.012026|
|         221|   -5.232991|   -7.348184|    0.823929|    0.012025|
|         222|   -5.244364|   -7.346791|    0.823928|    0.012025|
|         223|   -5.255330|   -7.345294|    0.823928|    0.012025|
|         224|   -5.266105|   -7.343742|    0.823928|    0.012024|
|         225|   -5.276636|   -7.342183|    0.823928|    0.012024|
|         226|   -5.286574|   -7.340671|    0.823929|    0.012024|
|         227|   -5.295457|   -7.339247|    0.823930|    0.012024|
|         228|   -5.302913|   -7.337937|    0.823931|    0.012024|
|         229|   -5.308785|   -7.336770|    0.823932|    0.012024|
|         230|   -5.313145|   -7.335775|    0.823933|    0.012024|
|         231|   -5.316244|   -7.334966|    0.823935|    0.012024|
|         232|   -5.318455|   -7.334353|    0.823936|    0.012024|
|         233|   -5.320200|   -7.333943|    0.823938|    0.012024|
|         234|   -5.321884|   -7.333738|    0.823940|    0.012024|
|         235|   -5.323833|   -7.333742|    0.823943|    0.012024|
|         236|   -5.326254|   -7.333953|    0.823945|    0.012024|
|         237|   -5.329225|   -7.334363|    0.823948|    0.012024|
|         238|   -5.332707|   -7.334963|    0.823951|    0.012024|
|         239|   -5.336574|   -7.335744|    0.823953|    0.012025|
|         240|   -5.340655|   -7.336699|    0.823956|    0.012025|
|         241|   -5.344773|   -7.337819|    0.823959|    0.012025|
|         242|   -5.348785|   -7.339092|    0.823962|    0.012025|
|         243|   -5.352616|   -7.340508|    0.823965|    0.012025|
|         244|   -5.356274|   -7.342060|    0.823969|    0.012026|
|         245|   -5.359851|   -7.343737|    0.823972|    0.012026|
|         246|   -5.363493|   -7.345534|    0.823975|    0.012026|
|         247|   -5.367364|   -7.347444|    0.823978|    0.012027|
|         248|   -5.371616|   -7.349445|    0.823981|    0.012027|
|         249|   -5.376346|   -7.351539|    0.823985|    0.012027|
|         250|   -5.381594|   -7.353726|    0.823988|    0.012028|
|         251|   -5.387333|   -7.356009|    0.823991|    0.012028|
|         252|   -5.393492|   -7.358384|    0.823994|    0.012028|
|         253|   -5.399967|   -7.360851|    0.823997|    0.012029|
|         254|   -5.406649|   -7.363414|    0.824000|    0.012029|
|         255|   -5.413437|   -7.366076|    0.824002|    0.012029|
|         256|   -5.420254|   -7.368836|    0.824005|    0.012030|
|         257|   -5.427050|   -7.371694|    0.824008|    0.012030|
|         258|   -5.433802|   -7.374648|    0.824010|    0.012030|
|         259|   -5.440502|   -7.377698|    0.824012|    0.012031|
|         260|   -5.447149|   -7.380840|    0.824015|    0.012031|
|         261|   -5.453745|   -7.384075|    0.824017|    0.012031|
|         262|   -5.460280|   -7.387402|    0.824019|    0.012031|
|         263|   -5.466734|   -7.390822|    0.824021|    0.012031|
|         264|   -5.473075|   -7.394328|    0.824023|    0.012032|
|         265|   -5.479265|   -7.397916|    0.824024|    0.012032|
|         266|   -5.485260|   -7.401582|    0.824026|    0.012032|
|         267|   -5.491013|   -7.405323|    0.824028|    0.012032|
|         268|   -5.496479|   -7.409141|    0.824029|    0.012032|
|         269|   -5.501618|   -7.413033|    0.824030|    0.012032|
|         270|   -5.506389|   -7.417001|    0.824032|    0.012033|
|         271|   -5.510760|   -7.421047|    0.824033|    0.012033|
|         272|   -5.514701|   -7.425176|    0.824034|    0.012033|
|         273|   -5.518186|   -7.429400|    0.824035|    0.012033|
|         274|   -5.521195|   -7.433730|    0.824036|    0.012033|
|         275|   -5.523711|   -7.438175|    0.824037|    0.012033|
|         276|   -5.525728|   -7.442746|    0.824038|    0.012033|
|         277|   -5.527245|   -7.447455|    0.824039|    0.012033|
|         278|   -5.528270|   -7.452314|    0.824040|    0.012033|
|         279|   -5.528822|   -7.457332|    0.824041|    0.012033|
|         280|   -5.528925|   -7.462522|    0.824042|    0.012033|
|         281|   -5.528611|   -7.467893|    0.824042|    0.012033|
|         282|   -5.527922|   -7.473455|    0.824043|    0.012033|
|         283|   -5.526900|   -7.479214|    0.824044|    0.012033|
|         284|   -5.525594|   -7.485172|    0.824044|    0.012033|
|         285|   -5.524052|   -7.491332|    0.824045|    0.012033|
|         286|   -5.522325|   -7.497689|    0.824045|    0.012033|
|         287|   -5.520461|   -7.504234|    0.824046|    0.012032|
|         288|   -5.518505|   -7.510957|    0.824046|    0.012032|
|         289|   -5.516502|   -7.517842|    0.824046|    0.012032|
|         290|   -5.514492|   -7.524872|    0.824047|    0.012032|
|         291|   -5.512509|   -7.532024|    0.824047|    0.012032|
|         292|   -5.510586|   -7.539273|    0.824047|    0.012032|
|         293|   -5.508750|   -7.546593|    0.824047|    0.012032|
|         294|   -5.507025|   -7.553953|    0.824047|    0.012032|
|         295|   -5.505431|   -7.561325|    0.824047|    0.012032|
|         296|   -5.503983|   -7.568678|    0.824047|    0.012031|
|         297|   -5.502696|   -7.575981|    0.824047|    0.012031|
|         298|   -5.501579|   -7.583207|    0.824047|    0.012031|
|         299|   -5.500641|   -7.590328|    0.824047|    0.012031|
|         300|   -5.499887|   -7.597319|    0.824047|    0.012031|
|         301|   -5.499324|   -7.604157|    0.824047|    0.012027|
+-----------------------------------------------------------------------+
|Fixed CL Mode                           |Value                         |
+-----------------------------------------------------------------------+
|Current CL                              |0.824047                      |
|Target CL                               |0.824                         |
|Previous AOA                            |2.79128                       |
|Changed AoA by                          |-0.000233846                  |
+-----------------------------------------------------------------------+
+----------------------------------------------------------------+
|  Inner_Iter|    rms[Rho]|     rms[nu]|          CL|          CD|
+----------------------------------------------------------------+
|         302|   -3.824356|   -7.565534|    0.824046|    0.012027|
|         303|   -4.209199|   -7.593610|    0.824046|    0.012027|
|         304|   -4.455205|   -7.606395|    0.824046|    0.012027|
|         305|   -4.535408|   -7.615882|    0.824045|    0.012026|
|         306|   -4.589300|   -7.624028|    0.824045|    0.012026|
|         307|   -4.658612|   -7.631288|    0.824045|    0.012026|
|         308|   -4.743690|   -7.637799|    0.824044|    0.012026|
|         309|   -4.831173|   -7.643642|    0.824044|    0.012026|
|         310|   -4.904152|   -7.648866|    0.824043|    0.012025|
|         311|   -4.954902|   -7.653486|    0.824043|    0.012025|
|         312|   -4.986350|   -7.657522|    0.824043|    0.012025|
|         313|   -5.003459|   -7.661046|    0.824042|    0.012025|
|         314|   -5.010593|   -7.664158|    0.824042|    0.012024|
|         315|   -5.013269|   -7.666938|    0.824042|    0.012024|
|         316|   -5.017264|   -7.669417|    0.824042|    0.012024|
|         317|   -5.026301|   -7.671587|    0.824042|    0.012024|
|         318|   -5.041061|   -7.673450|    0.824041|    0.012023|
|         319|   -5.059724|   -7.675021|    0.824041|    0.012023|
|         320|   -5.079339|   -7.676335|    0.824041|    0.012023|
|         321|   -5.097495|   -7.677429|    0.824042|    0.012023|
|         322|   -5.113437|   -7.678333|    0.824042|    0.012022|
|         323|   -5.127949|   -7.679073|    0.824042|    0.012022|
|         324|   -5.142298|   -7.679675|    0.824042|    0.012022|
|         325|   -5.157285|   -7.680177|    0.824043|    0.012022|
|         326|   -5.172931|   -7.680625|    0.824043|    0.012022|
|         327|   -5.188683|   -7.681072|    0.824044|    0.012022|
|         328|   -5.203774|   -7.681578|    0.824044|    0.012021|
|         329|   -5.217495|   -7.682199|    0.824045|    0.012021|
|         330|   -5.229333|   -7.682986|    0.824045|    0.012021|
|         331|   -5.239063|   -7.683983|    0.824046|    0.012021|
|         332|   -5.246819|   -7.685222|    0.824047|    0.012021|
|         333|   -5.253106|   -7.686725|    0.824048|    0.012021|
|         334|   -5.258698|   -7.688503|    0.824048|    0.012021|
|         335|   -5.264438|   -7.690554|    0.824049|    0.012021|
|         336|   -5.271041|   -7.692862|    0.824050|    0.012021|
|         337|   -5.278951|   -7.695401|    0.824051|    0.012021|
|         338|   -5.288286|   -7.698136|    0.824052|    0.012021|
|         339|   -5.298830|   -7.701025|    0.824053|    0.012021|
|         340|   -5.310079|   -7.704023|    0.824054|    0.012021|
|         341|   -5.321327|   -7.707078|    0.824054|    0.012021|
|         342|   -5.331808|   -7.710142|    0.824055|    0.012021|
|         343|   -5.340886|   -7.713163|    0.824056|    0.012021|
|         344|   -5.348229|   -7.716097|    0.824056|    0.012021|
|         345|   -5.353906|   -7.718905|    0.824057|    0.012021|
|         346|   -5.358338|   -7.721553|    0.824058|    0.012021|
|         347|   -5.362148|   -7.724014|    0.824058|    0.012022|
|         348|   -5.365969|   -7.726269|    0.824059|    0.012022|
|         349|   -5.370291|   -7.728307|    0.824059|    0.012022|
|         350|   -5.375372|   -7.730126|    0.824059|    0.012022|
|         351|   -5.381231|   -7.731732|    0.824059|    0.012022|
|         352|   -5.387688|   -7.733139|    0.824059|    0.012022|
|         353|   -5.394438|   -7.734373|    0.824059|    0.012023|
|         354|   -5.401135|   -7.735460|    0.824059|    0.012023|
|         355|   -5.407481|   -7.736430|    0.824059|    0.012023|
|         356|   -5.413278|   -7.737319|    0.824058|    0.012023|
|         357|   -5.418459|   -7.738166|    0.824058|    0.012023|
|         358|   -5.423079|   -7.739013|    0.824057|    0.012023|
|         359|   -5.427275|   -7.739903|    0.824056|    0.012023|
|         360|   -5.431229|   -7.740876|    0.824055|    0.012024|
|         361|   -5.435117|   -7.741970|    0.824054|    0.012024|
|         362|   -5.439085|   -7.743218|    0.824053|    0.012024|
|         363|   -5.443233|   -7.744647|    0.824052|    0.012024|
|         364|   -5.447621|   -7.746277|    0.824051|    0.012024|
|         365|   -5.452275|   -7.748122|    0.824050|    0.012024|
|         366|   -5.457201|   -7.750181|    0.824049|    0.012024|
|         367|   -5.462397|   -7.752450|    0.824047|    0.012024|
|         368|   -5.467861|   -7.754920|    0.824046|    0.012024|
|         369|   -5.473598|   -7.757572|    0.824044|    0.012024|
|         370|   -5.479613|   -7.760383|    0.824043|    0.012025|
|         371|   -5.485917|   -7.763320|    0.824042|    0.012025|
|         372|   -5.492513|   -7.766343|    0.824040|    0.012025|
|         373|   -5.499404|   -7.769408|    0.824039|    0.012025|
|         374|   -5.506581|   -7.772468|    0.824038|    0.012025|
|         375|   -5.514027|   -7.775473|    0.824036|    0.012025|
|         376|   -5.521717|   -7.778370|    0.824035|    0.012025|
|         377|   -5.529616|   -7.781116|    0.824034|    0.012025|
|         378|   -5.537684|   -7.783672|    0.824033|    0.012025|
|         379|   -5.545874|   -7.786001|    0.824032|    0.012025|
|         380|   -5.554135|   -7.788079|    0.824031|    0.012025|
|         381|   -5.562412|   -7.789884|    0.824031|    0.012025|
|         382|   -5.570644|   -7.791408|    0.824030|    0.012025|
|         383|   -5.578771|   -7.792653|    0.824030|    0.012025|
|         384|   -5.586728|   -7.793632|    0.824029|    0.012025|
|         385|   -5.594450|   -7.794371|    0.824029|    0.012025|
|         386|   -5.601873|   -7.794905|    0.824029|    0.012025|
|         387|   -5.608933|   -7.795281|    0.824029|    0.012025|
|         388|   -5.615573|   -7.795553|    0.824029|    0.012025|
|         389|   -5.621739|   -7.795771|    0.824029|    0.012025|
|         390|   -5.627387|   -7.795986|    0.824029|    0.012024|
|         391|   -5.632482|   -7.796250|    0.824030|    0.012024|
|         392|   -5.636998|   -7.796613|    0.824030|    0.012024|
|         393|   -5.640921|   -7.797125|    0.824031|    0.012024|
|         394|   -5.644247|   -7.797828|    0.824031|    0.012024|
|         395|   -5.646985|   -7.798760|    0.824032|    0.012024|
|         396|   -5.649152|   -7.799953|    0.824033|    0.012024|
|         397|   -5.650776|   -7.801430|    0.824033|    0.012024|
|         398|   -5.651890|   -7.803208|    0.824034|    0.012024|
|         399|   -5.652535|   -7.805299|    0.824035|    0.012024|
|         400|   -5.652757|   -7.807706|    0.824036|    0.012023|
|         401|   -5.652606|   -7.810428|    0.824037|    0.012021|
+-----------------------------------------------------------------------+
|Fixed CL Mode                           |Value                         |
+-----------------------------------------------------------------------+
|Current CL                              |0.824037                      |
|Target CL                               |0.824                         |
|Previous AOA                            |2.79104                       |
|Changed AoA by                          |-0.000179693                  |
+-----------------------------------------------------------------------+
+----------------------------------------------------------------+
|  Inner_Iter|    rms[Rho]|     rms[nu]|          CL|          CD|
+----------------------------------------------------------------+
|         402|   -3.938746|   -7.747690|    0.824038|    0.012021|
|         403|   -4.322357|   -7.781715|    0.824039|    0.012020|
|         404|   -4.564314|   -7.795063|    0.824040|    0.012020|
|         405|   -4.642295|   -7.804275|    0.824041|    0.012020|
|         406|   -4.695665|   -7.812106|    0.824042|    0.012020|
|         407|   -4.764738|   -7.819214|    0.824043|    0.012020|
|         408|   -4.849742|   -7.825831|    0.824044|    0.012020|
|         409|   -4.937976|   -7.832101|    0.824045|    0.012020|
|         410|   -5.013410|   -7.838115|    0.824046|    0.012019|
|         411|   -5.068289|   -7.843895|    0.824047|    0.012019|
|         412|   -5.104501|   -7.849459|    0.824048|    0.012019|
|         413|   -5.125827|   -7.854886|    0.824049|    0.012019|
|         414|   -5.135862|   -7.860299|    0.824050|    0.012019|
|         415|   -5.140039|   -7.865782|    0.824051|    0.012019|
|         416|   -5.144584|   -7.871357|    0.824052|    0.012019|
|         417|   -5.153741|   -7.877002|    0.824053|    0.012018|
|         418|   -5.168551|   -7.882703|    0.824053|    0.012018|
|         419|   -5.187390|   -7.888467|    0.824054|    0.012018|
|         420|   -5.207416|   -7.894323|    0.824055|    0.012018|
|         421|   -5.226293|   -7.900296|    0.824056|    0.012018|
|         422|   -5.243330|   -7.906379|    0.824056|    0.012018|
|         423|   -5.259328|   -7.912542|    0.824057|    0.012018|
|         424|   -5.275514|   -7.918735|    0.824058|    0.012018|
|         425|   -5.292561|   -7.924902|    0.824058|    0.012018|
|         426|   -5.310276|   -7.930998|    0.824059|    0.012018|
|         427|   -5.327848|   -7.936978|    0.824059|    0.012018|
|         428|   -5.344268|   -7.942826|    0.824059|    0.012018|
|         429|   -5.358673|   -7.948528|    0.824060|    0.012018|
|         430|   -5.370537|   -7.954080|    0.824060|    0.012017|
|         431|   -5.379761|   -7.959487|    0.824060|    0.012017|
|         432|   -5.386712|   -7.964753|    0.824061|    0.012017|
|         433|   -5.392162|   -7.969893|    0.824061|    0.012017|
|         434|   -5.397119|   -7.974911|    0.824061|    0.012017|
|         435|   -5.402583|   -7.979806|    0.824061|    0.012017|
|         436|   -5.409337|   -7.984576|    0.824061|    0.012017|
|         437|   -5.417823|   -7.989212|    0.824061|    0.012017|
|         438|   -5.428104|   -7.993707|    0.824061|    0.012017|
|         439|   -5.439875|   -7.998053|    0.824061|    0.012018|
|         440|   -5.452519|   -8.002246|    0.824061|    0.012018|
|         441|   -5.465200|   -8.006286|    0.824060|    0.012018|
|         442|   -5.477027|   -8.010175|    0.824060|    0.012018|
|         443|   -5.487273|   -8.013929|    0.824060|    0.012018|
|         444|   -5.495576|   -8.017563|    0.824060|    0.012018|
|         445|   -5.502051|   -8.021094|    0.824059|    0.012018|
|         446|   -5.507230|   -8.024544|    0.824059|    0.012018|
|         447|   -5.511880|   -8.027930|    0.824058|    0.012018|
|         448|   -5.516771|   -8.031267|    0.824058|    0.012018|
|         449|   -5.522499|   -8.034562|    0.824058|    0.012018|
|         450|   -5.529390|   -8.037817|    0.824057|    0.012018|
|         451|   -5.537487|   -8.041027|    0.824056|    0.012018|
|         452|   -5.546592|   -8.044184|    0.824056|    0.012019|
|         453|   -5.556348|   -8.047271|    0.824055|    0.012019|
|         454|   -5.566329|   -8.050264|    0.824054|    0.012019|
|         455|   -5.576144|   -8.053136|    0.824054|    0.012019|
|         456|   -5.585503|   -8.055857|    0.824053|    0.012019|
|         457|   -5.594268|   -8.058404|    0.824052|    0.012019|
|         458|   -5.602448|   -8.060757|    0.824051|    0.012019|
|         459|   -5.610166|   -8.062904|    0.824050|    0.012019|
|         460|   -5.617603|   -8.064838|    0.824049|    0.012020|
|         461|   -5.624945|   -8.066561|    0.824048|    0.012020|
|         462|   -5.632342|   -8.068088|    0.824047|    0.012020|
|         463|   -5.639888|   -8.069442|    0.824046|    0.012020|
|         464|   -5.647618|   -8.070657|    0.824045|    0.012020|
|         465|   -5.655522|   -8.071781|    0.824044|    0.012020|
|         466|   -5.663562|   -8.072869|    0.824043|    0.012020|
|         467|   -5.671692|   -8.073982|    0.824041|    0.012020|
|         468|   -5.679865|   -8.075190|    0.824040|    0.012021|
|         469|   -5.688051|   -8.076561|    0.824039|    0.012021|
|         470|   -5.696227|   -8.078165|    0.824038|    0.012021|
|         471|   -5.704383|   -8.080066|    0.824036|    0.012021|
|         472|   -5.712511|   -8.082323|    0.824035|    0.012021|
|         473|   -5.720604|   -8.084984|    0.824034|    0.012021|
|         474|   -5.728650|   -8.088083|    0.824033|    0.012021|
|         475|   -5.736631|   -8.091639|    0.824032|    0.012021|
|         476|   -5.744527|   -8.095651|    0.824030|    0.012021|
|         477|   -5.752313|   -8.100097|    0.824029|    0.012021|
|         478|   -5.759967|   -8.104932|    0.824028|    0.012021|
|         479|   -5.767470|   -8.110085|    0.824027|    0.012021|
|         480|   -5.774808|   -8.115463|    0.824026|    0.012021|
|         481|   -5.781975|   -8.120949|    0.824026|    0.012021|
|         482|   -5.788970|   -8.126406|    0.824025|    0.012021|
|         483|   -5.795799|   -8.131682|    0.824024|    0.012022|
|         484|   -5.802476|   -8.136618|    0.824024|    0.012022|
|         485|   -5.809018|   -8.141052|    0.824023|    0.012022|
|         486|   -5.815446|   -8.144837|    0.824023|    0.012021|
|         487|   -5.821786|   -8.147849|    0.824022|    0.012021|
|         488|   -5.828065|   -8.149998|    0.824022|    0.012021|
|         489|   -5.834311|   -8.151241|    0.824022|    0.012021|
|         490|   -5.840553|   -8.151581|    0.824022|    0.012021|
|         491|   -5.846819|   -8.151073|    0.824022|    0.012021|
|         492|   -5.853134|   -8.149819|    0.824022|    0.012021|
|         493|   -5.859522|   -8.147957|    0.824022|    0.012021|
|         494|   -5.866000|   -8.145654|    0.824022|    0.012021|
|         495|   -5.872584|   -8.143091|    0.824023|    0.012021|
|         496|   -5.879280|   -8.140452|    0.824023|    0.012021|
|         497|   -5.886092|   -8.137917|    0.824023|    0.012021|
|         498|   -5.893015|   -8.135648|    0.824024|    0.012021|
|         499|   -5.900040|   -8.133790|    0.824024|    0.012020|
|         500|   -5.907148|   -8.132460|    0.824025|    0.012020|
|         501|   -5.914320|   -8.131751|    0.824026|    0.012018|
+-----------------------------------------------------------------------+
|Fixed CL Mode                           |Value                         |
+-----------------------------------------------------------------------+
|Current CL                              |0.824026                      |
|Target CL                               |0.824                         |
|Previous AOA                            |2.79086                       |
|Changed AoA by                          |-0.000125043                  |
+-----------------------------------------------------------------------+
+----------------------------------------------------------------+
|  Inner_Iter|    rms[Rho]|     rms[nu]|          CL|          CD|
+----------------------------------------------------------------+
|         502|   -4.096257|   -8.010748|    0.824026|    0.012018|
|         503|   -4.479591|   -8.064247|    0.824027|    0.012018|
|         504|   -4.720348|   -8.083448|    0.824028|    0.012018|
|         505|   -4.797543|   -8.095605|    0.824028|    0.012018|
|         506|   -4.850768|   -8.105611|    0.824029|    0.012018|
|         507|   -4.920042|   -8.114598|    0.824030|    0.012017|
|         508|   -5.005748|   -8.122871|    0.824031|    0.012017|
|         509|   -5.095651|   -8.130560|    0.824032|    0.012017|
|         510|   -5.174059|   -8.137682|    0.824032|    0.012017|
|         511|   -5.232851|   -8.144123|    0.824033|    0.012017|
|         512|   -5.273066|   -8.149767|    0.824034|    0.012017|
|         513|   -5.297674|   -8.154628|    0.824035|    0.012017|
|         514|   -5.309817|   -8.158805|    0.824035|    0.012016|
|         515|   -5.315082|   -8.162354|    0.824036|    0.012016|
|         516|   -5.320262|   -8.165235|    0.824037|    0.012016|
|         517|   -5.330129|   -8.167358|    0.824037|    0.012016|
|         518|   -5.346001|   -8.168682|    0.824038|    0.012016|
|         519|   -5.366279|   -8.169251|    0.824038|    0.012016|
|         520|   -5.387980|   -8.169179|    0.824039|    0.012016|
|         521|   -5.408578|   -8.168578|    0.824039|    0.012015|
|         522|   -5.427281|   -8.167543|    0.824040|    0.012015|
|         523|   -5.444942|   -8.166127|    0.824040|    0.012015|
|         524|   -5.462898|   -8.164371|    0.824041|    0.012015|
|         525|   -5.481889|   -8.162325|    0.824041|    0.012015|
|         526|   -5.501683|   -8.160050|    0.824041|    0.012015|
|         527|   -5.521330|   -8.157620|    0.824041|    0.012015|
|         528|   -5.539632|   -8.155128|    0.824041|    0.012015|
|         529|   -5.555552|   -8.152663|    0.824042|    0.012015|
|         530|   -5.568443|   -8.150304|    0.824042|    0.012015|
|         531|   -5.578177|   -8.148117|    0.824042|    0.012015|
|         532|   -5.585190|   -8.146149|    0.824042|    0.012015|
|         533|   -5.590408|   -8.144433|    0.824042|    0.012014|
|         534|   -5.595026|   -8.142971|    0.824041|    0.012014|
|         535|   -5.600216|   -8.141747|    0.824041|    0.012014|
|         536|   -5.606884|   -8.140733|    0.824041|    0.012014|
|         537|   -5.615530|   -8.139884|    0.824041|    0.012014|
|         538|   -5.626211|   -8.139149|    0.824041|    0.012014|
|         539|   -5.638555|   -8.138475|    0.824040|    0.012014|
|         540|   -5.651819|   -8.137812|    0.824040|    0.012014|
|         541|   -5.664996|   -8.137113|    0.824040|    0.012014|
|         542|   -5.677010|   -8.136339|    0.824039|    0.012014|
|         543|   -5.686988|   -8.135464|    0.824039|    0.012015|
|         544|   -5.694519|   -8.134472|    0.824039|    0.012015|
|         545|   -5.699786|   -8.133355|    0.824038|    0.012015|
|         546|   -5.703486|   -8.132112|    0.824038|    0.012015|
|         547|   -5.706578|   -8.130748|    0.824037|    0.012015|
|         548|   -5.710001|   -8.129272|    0.824037|    0.012015|
|         549|   -5.714465|   -8.127691|    0.824036|    0.012015|
|         550|   -5.720349|   -8.126014|    0.824036|    0.012015|
|         551|   -5.727703|   -8.124245|    0.824035|    0.012015|
|         552|   -5.736302|   -8.122386|    0.824035|    0.012015|
|         553|   -5.745744|   -8.120442|    0.824034|    0.012015|
|         554|   -5.755557|   -8.118407|    0.824033|    0.012016|
|         555|   -5.765309|   -8.116269|    0.824033|    0.012016|
|         556|   -5.774692|   -8.114021|    0.824032|    0.012016|
|         557|   -5.783569|   -8.111654|    0.824031|    0.012016|
|         558|   -5.791971|   -8.109163|    0.824030|    0.012016|
|         559|   -5.800061|   -8.106548|    0.824030|    0.012016|
|         560|   -5.808066|   -8.103813|    0.824029|    0.012016|
|         561|   -5.816220|   -8.100970|    0.824028|    0.012017|
|         562|   -5.824715|   -8.098039|    0.824027|    0.012017|
|         563|   -5.833681|   -8.095046|    0.824026|    0.012017|
|         564|   -5.843181|   -8.092026|    0.824025|    0.012017|
|         565|   -5.853225|   -8.089024|    0.824024|    0.012017|
|         566|   -5.863792|   -8.086086|    0.824023|    0.012017|
|         567|   -5.874844|   -8.083269|    0.824022|    0.012018|
|         568|   -5.886344|   -8.080624|    0.824021|    0.012018|
|         569|   -5.898266|   -8.078208|    0.824020|    0.012018|
|         570|   -5.910591|   -8.076073|    0.824019|    0.012018|
|         571|   -5.923307|   -8.074266|    0.824018|    0.012018|
|         572|   -5.936402|   -8.072826|    0.824017|    0.012018|
|         573|   -5.949852|   -8.071783|    0.824016|    0.012019|
|         574|   -5.963618|   -8.071158|    0.824015|    0.012019|
|         575|   -5.977643|   -8.070958|    0.824014|    0.012019|
|         576|   -5.991847|   -8.071176|    0.824013|    0.012019|
|         577|   -6.006131|   -8.071793|    0.824012|    0.012019|
|         578|   -6.020377|   -8.072775|    0.824012|    0.012019|
|         579|   -6.034454|   -8.074075|    0.824011|    0.012020|
|         580|   -6.048223|   -8.075635|    0.824010|    0.012020|
|         581|   -6.061541|   -8.077382|    0.824009|    0.012020|
|         582|   -6.074266|   -8.079239|    0.824009|    0.012020|
|         583|   -6.086266|   -8.081120|    0.824008|    0.012020|
|         584|   -6.097422|   -8.082938|    0.824008|    0.012020|
|         585|   -6.107640|   -8.084607|    0.824007|    0.012020|
|         586|   -6.116849|   -8.086049|    0.824007|    0.012020|
|         587|   -6.125013|   -8.087194|    0.824006|    0.012021|
|         588|   -6.132128|   -8.087987|    0.824006|    0.012021|
|         589|   -6.138225|   -8.088393|    0.824006|    0.012021|
|         590|   -6.143365|   -8.088392|    0.824006|    0.012021|
|         591|   -6.147637|   -8.087989|    0.824006|    0.012021|
|         592|   -6.151146|   -8.087206|    0.824006|    0.012021|
|         593|   -6.154011|   -8.086083|    0.824006|    0.012021|
|         594|   -6.156355|   -8.084675|    0.824006|    0.012021|
|         595|   -6.158298|   -8.083047|    0.824006|    0.012021|
|         596|   -6.159955|   -8.081270|    0.824006|    0.012021|
|         597|   -6.161429|   -8.079415|    0.824007|    0.012021|
|         598|   -6.162810|   -8.077555|    0.824007|    0.012021|
|         599|   -6.164174|   -8.075751|    0.824007|    0.012021|
|         600|   -6.165581|   -8.074060|    0.824008|    0.012021|
|         601|   -6.167080|   -8.072525|    0.824008|    0.012020|
+-----------------------------------------------------------------------+
|Fixed CL Mode                           |Value                         |
+-----------------------------------------------------------------------+
|Current CL                              |0.824008                      |
|Target CL                               |0.824                         |
|Previous AOA                            |2.79074                       |
|Changed AoA by                          |-3.85666e-05                  |
+-----------------------------------------------------------------------+
+----------------------------------------------------------------+
|  Inner_Iter|    rms[Rho]|     rms[nu]|          CL|          CD|
+----------------------------------------------------------------+
|         602|   -4.607048|   -8.059513|    0.824009|    0.012020|
|         603|   -4.988823|   -8.064104|    0.824009|    0.012020|
|         604|   -5.223930|   -8.064897|    0.824010|    0.012020|
|         605|   -5.297143|   -8.065129|    0.824010|    0.012020|
|         606|   -5.348273|   -8.065267|    0.824011|    0.012020|
|         607|   -5.415364|   -8.065392|    0.824011|    0.012020|
|         608|   -5.498196|   -8.065508|    0.824012|    0.012020|
|         609|   -5.585036|   -8.065599|    0.824013|    0.012020|
|         610|   -5.661653|   -8.065639|    0.824013|    0.012020|
|         611|   -5.720987|   -8.065589|    0.824014|    0.012020|
|         612|   -5.763691|   -8.065417|    0.824015|    0.012020|
|         613|   -5.791626|   -8.065097|    0.824015|    0.012020|
|         614|   -5.806796|   -8.064618|    0.824016|    0.012020|
|         615|   -5.813979|   -8.063971|    0.824016|    0.012019|
|         616|   -5.819716|   -8.063148|    0.824017|    0.012019|
|         617|   -5.828928|   -8.062151|    0.824017|    0.012019|
|         618|   -5.843235|   -8.060991|    0.824018|    0.012019|
|         619|   -5.861427|   -8.059693|    0.824018|    0.012019|
|         620|   -5.880991|   -8.058293|    0.824019|    0.012019|
|         621|   -5.899845|   -8.056831|    0.824019|    0.012019|
|         622|   -5.917423|   -8.055352|    0.824020|    0.012019|
|         623|   -5.934484|   -8.053899|    0.824020|    0.012019|
|         624|   -5.952055|   -8.052515|    0.824020|    0.012018|
|         625|   -5.970509|   -8.051243|    0.824021|    0.012018|
|         626|   -5.989296|   -8.050123|    0.824021|    0.012018|
|         627|   -6.007248|   -8.049194|    0.824021|    0.012018|
|         628|   -6.023109|   -8.048489|    0.824021|    0.012018|
|         629|   -6.035972|   -8.048037|    0.824021|    0.012018|
|         630|   -6.045502|   -8.047864|    0.824022|    0.012018|
|         631|   -6.051966|   -8.047982|    0.824022|    0.012018|
|         632|   -6.056132|   -8.048401|    0.824022|    0.012017|
|         633|   -6.059083|   -8.049120|    0.824022|    0.012017|
|         634|   -6.061969|   -8.050131|    0.824022|    0.012017|
|         635|   -6.065770|   -8.051420|    0.824022|    0.012017|
|         636|   -6.071132|   -8.052965|    0.824022|    0.012017|
|         637|   -6.078297|   -8.054742|    0.824022|    0.012017|
|         638|   -6.087112|   -8.056719|    0.824022|    0.012017|
|         639|   -6.097071|   -8.058866|    0.824022|    0.012017|
|         640|   -6.107401|   -8.061150|    0.824022|    0.012017|
|         641|   -6.117192|   -8.063537|    0.824022|    0.012017|
|         642|   -6.125576|   -8.065997|    0.824022|    0.012017|
|         643|   -6.131945|   -8.068501|    0.824021|    0.012017|
|         644|   -6.136115|   -8.071026|    0.824021|    0.012016|
|         645|   -6.138368|   -8.073552|    0.824021|    0.012016|
|         646|   -6.139336|   -8.076061|    0.824021|    0.012016|
|         647|   -6.139795|   -8.078543|    0.824021|    0.012016|
|         648|   -6.140454|   -8.080991|    0.824021|    0.012016|
|         649|   -6.141812|   -8.083401|    0.824021|    0.012016|
|         650|   -6.144105|   -8.085773|    0.824021|    0.012016|
|         651|   -6.147322|   -8.088108|    0.824021|    0.012016|
|         652|   -6.151264|   -8.090410|    0.824021|    0.012016|
|         653|   -6.155626|   -8.092683|    0.824021|    0.012016|
|         654|   -6.160087|   -8.094932|    0.824021|    0.012016|
|         655|   -6.164378|   -8.097158|    0.824021|    0.012016|
|         656|   -6.168337|   -8.099362|    0.824020|    0.012016|
|         657|   -6.171915|   -8.101543|    0.824020|    0.012016|
|         658|   -6.175168|   -8.103698|    0.824020|    0.012016|
|         659|   -6.178220|   -8.105824|    0.824020|    0.012016|
|         660|   -6.181219|   -8.107917|    0.824020|    0.012017|
|         661|   -6.184304|   -8.109969|    0.824020|    0.012017|
|         662|   -6.187580|   -8.111975|    0.824020|    0.012017|
|         663|   -6.191112|   -8.113932|    0.824020|    0.012017|
|         664|   -6.194926|   -8.115836|    0.824020|    0.012017|
|         665|   -6.199021|   -8.117688|    0.824020|    0.012017|
|         666|   -6.203380|   -8.119489|    0.824019|    0.012017|
|         667|   -6.207982|   -8.121249|    0.824019|    0.012017|
|         668|   -6.212808|   -8.122976|    0.824019|    0.012017|
|         669|   -6.217845|   -8.124686|    0.824019|    0.012017|
|         670|   -6.223086|   -8.126396|    0.824019|    0.012017|
|         671|   -6.228524|   -8.128127|    0.824019|    0.012018|
|         672|   -6.234153|   -8.129900|    0.824019|    0.012018|
|         673|   -6.239960|   -8.131738|    0.824018|    0.012018|
|         674|   -6.245927|   -8.133664|    0.824018|    0.012018|
|         675|   -6.252027|   -8.135699|    0.824018|    0.012018|
|         676|   -6.258225|   -8.137860|    0.824018|    0.012018|
|         677|   -6.264481|   -8.140162|    0.824018|    0.012018|
|         678|   -6.270751|   -8.142614|    0.824017|    0.012018|
|         679|   -6.276986|   -8.145219|    0.824017|    0.012019|
|         680|   -6.283139|   -8.147975|    0.824017|    0.012019|
|         681|   -6.289163|   -8.150872|    0.824017|    0.012019|
|         682|   -6.295012|   -8.153896|    0.824017|    0.012019|
|         683|   -6.300647|   -8.157025|    0.824017|    0.012019|
|         684|   -6.306032|   -8.160231|    0.824016|    0.012019|
|         685|   -6.311137|   -8.163482|    0.824016|    0.012019|
|         686|   -6.315942|   -8.166742|    0.824016|    0.012020|
|         687|   -6.320432|   -8.169975|    0.824016|    0.012020|
|         688|   -6.324604|   -8.173140|    0.824016|    0.012020|
|         689|   -6.328460|   -8.176201|    0.824016|    0.012020|
|         690|   -6.332014|   -8.179125|    0.824016|    0.012020|
|         691|   -6.335285|   -8.181881|    0.824016|    0.012020|
|         692|   -6.338301|   -8.184446|    0.824016|    0.012020|
|         693|   -6.341092|   -8.186805|    0.824016|    0.012020|
|         694|   -6.343696|   -8.188951|    0.824016|    0.012020|
|         695|   -6.346150|   -8.190884|    0.824016|    0.012020|
|         696|   -6.348493|   -8.192613|    0.824016|    0.012021|
|         697|   -6.350765|   -8.194155|    0.824016|    0.012021|
|         698|   -6.353004|   -8.195531|    0.824016|    0.012021|
|         699|   -6.355243|   -8.196770|    0.824016|    0.012021|
|         700|   -6.357516|   -8.197902|    0.824016|    0.012021|
|         701|   -6.359848|   -8.198959|    0.824016|    0.012020|
+-----------------------------------------------------------------------+
|Fixed CL Mode                           |Value                         |
+-----------------------------------------------------------------------+
|Current CL                              |0.824016                      |
|Target CL                               |0.824                         |
|Previous AOA                            |2.7907                        |
|Changed AoA by                          |-7.92635e-05                  |
+-----------------------------------------------------------------------+
+----------------------------------------------------------------+
|  Inner_Iter|    rms[Rho]|     rms[nu]|          CL|          CD|
+----------------------------------------------------------------+
|         702|   -4.294351|   -8.125778|    0.824016|    0.012020|
|         703|   -4.678732|   -8.161162|    0.824016|    0.012020|
|         704|   -4.922038|   -8.173044|    0.824016|    0.012020|
|         705|   -5.000156|   -8.180092|    0.824016|    0.012020|
|         706|   -5.053495|   -8.185485|    0.824016|    0.012020|
|         707|   -5.123055|   -8.189974|    0.824017|    0.012020|
|         708|   -5.209394|   -8.193801|    0.824017|    0.012020|
|         709|   -5.300076|   -8.197108|    0.824017|    0.012020|
|         710|   -5.378897|   -8.199985|    0.824017|    0.012020|
|         711|   -5.437356|   -8.202464|    0.824017|    0.012020|
|         712|   -5.476590|   -8.204585|    0.824017|    0.012020|
|         713|   -5.499938|   -8.206454|    0.824017|    0.012020|
|         714|   -5.510925|   -8.208216|    0.824018|    0.012020|
|         715|   -5.515402|   -8.209969|    0.824018|    0.012020|
|         716|   -5.520228|   -8.211750|    0.824018|    0.012020|
|         717|   -5.530107|   -8.213548|    0.824018|    0.012020|
|         718|   -5.546241|   -8.215355|    0.824018|    0.012020|
|         719|   -5.566893|   -8.217185|    0.824018|    0.012020|
|         720|   -5.588913|   -8.219066|    0.824018|    0.012020|
|         721|   -5.609611|   -8.221019|    0.824018|    0.012020|
|         722|   -5.628102|   -8.223042|    0.824018|    0.012020|
|         723|   -5.645239|   -8.225114|    0.824018|    0.012020|
|         724|   -5.662435|   -8.227206|    0.824018|    0.012020|
|         725|   -5.680534|   -8.229285|    0.824018|    0.012020|
|         726|   -5.699415|   -8.231336|    0.824019|    0.012020|
|         727|   -5.718242|   -8.233349|    0.824019|    0.012020|
|         728|   -5.735923|   -8.235321|    0.824019|    0.012020|
|         729|   -5.751486|   -8.237278|    0.824019|    0.012020|
|         730|   -5.764297|   -8.239229|    0.824019|    0.012020|
|         731|   -5.774184|   -8.241194|    0.824019|    0.012020|
|         732|   -5.781507|   -8.243186|    0.824019|    0.012020|
|         733|   -5.787110|   -8.245215|    0.824019|    0.012020|
|         734|   -5.792138|   -8.247286|    0.824018|    0.012020|
|         735|   -5.797752|   -8.249398|    0.824018|    0.012019|
|         736|   -5.804885|   -8.251545|    0.824018|    0.012019|
|         737|   -5.814089|   -8.253714|    0.824018|    0.012019|
|         738|   -5.825489|   -8.255894|    0.824018|    0.012019|
|         739|   -5.838784|   -8.258068|    0.824018|    0.012019|
|         740|   -5.853291|   -8.260220|    0.824018|    0.012019|
|         741|   -5.868034|   -8.262339|    0.824018|    0.012019|
|         742|   -5.881919|   -8.264413|    0.824018|    0.012019|
|         743|   -5.894001|   -8.266437|    0.824018|    0.012019|
|         744|   -5.903763|   -8.268408|    0.824018|    0.012019|
|         745|   -5.911282|   -8.270326|    0.824017|    0.012019|
|         746|   -5.917188|   -8.272193|    0.824017|    0.012019|
|         747|   -5.922433|   -8.274012|    0.824017|    0.012019|
|         748|   -5.927997|   -8.275786|    0.824017|    0.012019|
|         749|   -5.934655|   -8.277518|    0.824017|    0.012018|
|         750|   -5.942851|   -8.279212|    0.824017|    0.012018|
|         751|   -5.952676|   -8.280867|    0.824016|    0.012018|
|         752|   -5.963918|   -8.282487|    0.824016|    0.012018|
|         753|   -5.976146|   -8.284080|    0.824016|    0.012018|
|         754|   -5.988823|   -8.285641|    0.824016|    0.012018|
|         755|   -6.001427|   -8.287174|    0.824015|    0.012018|
|         756|   -6.013555|   -8.288682|    0.824015|    0.012018|
|         757|   -6.024988|   -8.290172|    0.824015|    0.012018|
|         758|   -6.035708|   -8.291659|    0.824014|    0.012018|
|         759|   -6.045862|   -8.293157|    0.824014|    0.012018|
|         760|   -6.055692|   -8.294687|    0.824014|    0.012018|
|         761|   -6.065458|   -8.296273|    0.824013|    0.012018|
|         762|   -6.075381|   -8.297945|    0.824013|    0.012018|
|         763|   -6.085610|   -8.299733|    0.824012|    0.012018|
|         764|   -6.096213|   -8.301673|    0.824012|    0.012018|
|         765|   -6.107193|   -8.303802|    0.824012|    0.012018|
|         766|   -6.118509|   -8.306157|    0.824011|    0.012018|
|         767|   -6.130104|   -8.308776|    0.824011|    0.012018|
|         768|   -6.141918|   -8.311695|    0.824010|    0.012017|
|         769|   -6.153909|   -8.314942|    0.824010|    0.012017|
|         770|   -6.166045|   -8.318541|    0.824009|    0.012017|
|         771|   -6.178308|   -8.322509|    0.824009|    0.012017|
|         772|   -6.190681|   -8.326850|    0.824008|    0.012017|
|         773|   -6.203139|   -8.331560|    0.824008|    0.012017|
|         774|   -6.215645|   -8.336618|    0.824008|    0.012017|
|         775|   -6.228143|   -8.341991|    0.824007|    0.012017|
|         776|   -6.240558|   -8.347632|    0.824007|    0.012017|
|         777|   -6.252801|   -8.353477|    0.824007|    0.012017|
|         778|   -6.264773|   -8.359449|    0.824006|    0.012018|
|         779|   -6.276370|   -8.365460|    0.824006|    0.012018|
|         780|   -6.287490|   -8.371411|    0.824006|    0.012018|
|         781|   -6.298036|   -8.377200|    0.824006|    0.012018|
|         782|   -6.307924|   -8.382722|    0.824006|    0.012018|
|         783|   -6.317086|   -8.387881|    0.824006|    0.012018|
|         784|   -6.325471|   -8.392589|    0.824005|    0.012018|
|         785|   -6.333047|   -8.396777|    0.824005|    0.012018|
|         786|   -6.339807|   -8.400398|    0.824006|    0.012018|
|         787|   -6.345763|   -8.403432|    0.824006|    0.012018|
|         788|   -6.350951|   -8.405885|    0.824006|    0.012018|
|         789|   -6.355424|   -8.407793|    0.824006|    0.012018|
|         790|   -6.359252|   -8.409214|    0.824006|    0.012018|
|         791|   -6.362514|   -8.410230|    0.824006|    0.012018|
|         792|   -6.365300|   -8.410937|    0.824007|    0.012018|
|         793|   -6.367699|   -8.411440|    0.824007|    0.012018|
|         794|   -6.369799|   -8.411848|    0.824007|    0.012018|
|         795|   -6.371685|   -8.412268|    0.824008|    0.012018|
|         796|   -6.373433|   -8.412800|    0.824008|    0.012019|
|         797|   -6.375109|   -8.413530|    0.824008|    0.012019|
|         798|   -6.376771|   -8.414534|    0.824009|    0.012019|
|         799|   -6.378464|   -8.415869|    0.824009|    0.012019|
|         800|   -6.380226|   -8.417573|    0.824010|    0.012019|
|         801|   -6.382083|   -8.419668|    0.824010|    0.012018|
+-----------------------------------------------------------------------+
|Fixed CL Mode                           |Value                         |
+-----------------------------------------------------------------------+
|Current CL                              |0.82401                       |
|Target CL                               |0.824                         |
|Previous AOA                            |2.79062                       |
|Changed AoA by                          |-4.90734e-05                  |
+-----------------------------------------------------------------------+
+----------------------------------------------------------------+
|  Inner_Iter|    rms[Rho]|     rms[nu]|          CL|          CD|
+----------------------------------------------------------------+
|         802|   -4.502501|   -8.343292|    0.824011|    0.012018|
|         803|   -4.886146|   -8.381915|    0.824011|    0.012018|
|         804|   -5.127577|   -8.396456|    0.824012|    0.012018|
|         805|   -5.204924|   -8.406238|    0.824012|    0.012019|
|         806|   -5.258089|   -8.414503|    0.824013|    0.012019|
|         807|   -5.327356|   -8.421948|    0.824013|    0.012019|
|         808|   -5.413138|   -8.428722|    0.824014|    0.012019|
|         809|   -5.503160|   -8.434869|    0.824014|    0.012019|
|         810|   -5.581650|   -8.440384|    0.824015|    0.012019|
|         811|   -5.640441|   -8.445199|    0.824015|    0.012019|
|         812|   -5.680588|   -8.449269|    0.824015|    0.012019|
|         813|   -5.705090|   -8.452653|    0.824016|    0.012019|
|         814|   -5.717110|   -8.455464|    0.824016|    0.012019|
|         815|   -5.722268|   -8.457804|    0.824016|    0.012019|
|         816|   -5.727392|   -8.459710|    0.824017|    0.012019|
|         817|   -5.737272|   -8.461187|    0.824017|    0.012019|
|         818|   -5.753221|   -8.462265|    0.824017|    0.012019|
|         819|   -5.773616|   -8.463010|    0.824018|    0.012019|
|         820|   -5.795422|   -8.463515|    0.824018|    0.012019|
|         821|   -5.816050|   -8.463873|    0.824018|    0.012019|
|         822|   -5.834652|   -8.464156|    0.824018|    0.012019|
|         823|   -5.852049|   -8.464417|    0.824018|    0.012020|
|         824|   -5.869563|   -8.464687|    0.824019|    0.012020|
|         825|   -5.887921|   -8.465001|    0.824019|    0.012020|
|         826|   -5.906879|   -8.465404|    0.824019|    0.012020|
|         827|   -5.925486|   -8.465949|    0.824019|    0.012020|
|         828|   -5.942566|   -8.466677|    0.824019|    0.012020|
|         829|   -5.957127|   -8.467647|    0.824019|    0.012020|
|         830|   -5.968591|   -8.468929|    0.824019|    0.012020|
|         831|   -5.976903|   -8.470552|    0.824019|    0.012020|
|         832|   -5.982555|   -8.472542|    0.824019|    0.012020|
|         833|   -5.986492|   -8.474914|    0.824019|    0.012020|
|         834|   -5.989888|   -8.477667|    0.824018|    0.012020|
|         835|   -5.993870|   -8.480784|    0.824018|    0.012020|
|         836|   -5.999288|   -8.484234|    0.824018|    0.012020|
|         837|   -6.006592|   -8.487976|    0.824018|    0.012020|
|         838|   -6.015811|   -8.491960|    0.824018|    0.012020|
|         839|   -6.026577|   -8.496134|    0.824018|    0.012020|
|         840|   -6.038189|   -8.500442|    0.824017|    0.012019|
|         841|   -6.049733|   -8.504836|    0.824017|    0.012019|
|         842|   -6.060258|   -8.509267|    0.824017|    0.012019|
|         843|   -6.069018|   -8.513701|    0.824017|    0.012019|
|         844|   -6.075691|   -8.518108|    0.824016|    0.012019|
|         845|   -6.080472|   -8.522469|    0.824016|    0.012019|
|         846|   -6.083993|   -8.526774|    0.824016|    0.012019|
|         847|   -6.087107|   -8.531019|    0.824016|    0.012019|
|         848|   -6.090640|   -8.535206|    0.824015|    0.012019|
|         849|   -6.095216|   -8.539338|    0.824015|    0.012019|
|         850|   -6.101167|   -8.543419|    0.824015|    0.012019|
|         851|   -6.108532|   -8.547448|    0.824014|    0.012019|
|         852|   -6.117107|   -8.551451|    0.824014|    0.012019|
|         853|   -6.126529|   -8.555416|    0.824014|    0.012019|
|         854|   -6.136374|   -8.559334|    0.824013|    0.012019|
|         855|   -6.146250|   -8.563188|    0.824013|    0.012019|
|         856|   -6.155874|   -8.566960|    0.824013|    0.012019|
|         857|   -6.165110|   -8.570623|    0.824012|    0.012019|
|         858|   -6.173970|   -8.574148|    0.824012|    0.012019|
|         859|   -6.182576|   -8.577502|    0.824012|    0.012019|
|         860|   -6.191109|   -8.580651|    0.824011|    0.012019|
|         861|   -6.199753|   -8.583560|    0.824011|    0.012019|
|         862|   -6.208655|   -8.586200|    0.824011|    0.012019|
|         863|   -6.217904|   -8.588547|    0.824010|    0.012019|
|         864|   -6.227528|   -8.590590|    0.824010|    0.012019|
|         865|   -6.237503|   -8.592327|    0.824010|    0.012019|
|         866|   -6.247773|   -8.593776|    0.824009|    0.012019|
|         867|   -6.258266|   -8.594965|    0.824009|    0.012018|
|         868|   -6.268907|   -8.595937|    0.824009|    0.012018|
|         869|   -6.279627|   -8.596748|    0.824008|    0.012018|
|         870|   -6.290363|   -8.597463|    0.824008|    0.012018|
|         871|   -6.301056|   -8.598151|    0.824008|    0.012018|
|         872|   -6.311645|   -8.598884|    0.824007|    0.012018|
|         873|   -6.322059|   -8.599731|    0.824007|    0.012018|
|         874|   -6.332216|   -8.600754|    0.824007|    0.012018|
|         875|   -6.342022|   -8.602005|    0.824007|    0.012018|
|         876|   -6.351371|   -8.603522|    0.824006|    0.012018|
|         877|   -6.360153|   -8.605327|    0.824006|    0.012018|
|         878|   -6.368259|   -8.607425|    0.824006|    0.012018|
|         879|   -6.375591|   -8.609801|    0.824006|    0.012018|
|         880|   -6.382063|   -8.612424|    0.824006|    0.012018|
|         881|   -6.387614|   -8.615241|    0.824006|    0.012018|
|         882|   -6.392208|   -8.618186|    0.824005|    0.012018|
|         883|   -6.395833|   -8.621178|    0.824005|    0.012018|
|         884|   -6.398508|   -8.624127|    0.824005|    0.012018|
|         885|   -6.400275|   -8.626935|    0.824005|    0.012018|
|         886|   -6.401199|   -8.629511|    0.824005|    0.012018|
|         887|   -6.401362|   -8.631767|    0.824005|    0.012018|
|         888|   -6.400861|   -8.633629|    0.824005|    0.012018|
|         889|   -6.399800|   -8.635044|    0.824005|    0.012018|
|         890|   -6.398287|   -8.635984|    0.824006|    0.012018|
|         891|   -6.396427|   -8.636444|    0.824006|    0.012018|
|         892|   -6.394324|   -8.636452|    0.824006|    0.012018|
|         893|   -6.392073|   -8.636057|    0.824006|    0.012018|
|         894|   -6.389761|   -8.635333|    0.824006|    0.012019|
|         895|   -6.387466|   -8.634368|    0.824006|    0.012019|
|         896|   -6.385256|   -8.633263|    0.824007|    0.012019|
|         897|   -6.383188|   -8.632122|    0.824007|    0.012019|
|         898|   -6.381313|   -8.631043|    0.824007|    0.012019|
|         899|   -6.379670|   -8.630118|    0.824007|    0.012019|
|         900|   -6.378293|   -8.629425|    0.824008|    0.012019|
|         901|   -6.377209|   -8.629023|    0.824008|    0.012018|
+-----------------------------------------------------------------------+
|Fixed CL Mode                           |Value                         |
+-----------------------------------------------------------------------+
|Current CL                              |0.824008                      |
|Target CL                               |0.824                         |
|Previous AOA                            |2.79057                       |
[...]
|        5298|   -6.037081|   -7.952445|    0.824237|    0.012023|
|        5299|   -6.043736|   -7.956211|    0.824237|    0.012023|
|        5300|   -6.050005|   -7.960026|    0.824237|    0.012023|
|        5301|   -6.055848|   -7.963906|    0.824238|    0.012023|
|        5302|   -6.061239|   -7.967862|    0.824238|    0.012023|
|        5303|   -6.066161|   -7.971904|    0.824238|    0.012023|
|        5304|   -6.070609|   -7.976039|    0.824238|    0.012023|
|        5305|   -6.074591|   -7.980270|    0.824238|    0.012023|
|        5306|   -6.078126|   -7.984601|    0.824238|    0.012023|
|        5307|   -6.081241|   -7.989031|    0.824238|    0.012023|
|        5308|   -6.083977|   -7.993560|    0.824238|    0.012022|
|        5309|   -6.086378|   -7.998188|    0.824238|    0.012022|
|        5310|   -6.088495|   -8.002921|    0.824238|    0.012022|
|        5311|   -6.090382|   -8.007757|    0.824239|    0.012022|
|        5312|   -6.092096|   -8.012698|    0.824239|    0.012022|
|        5313|   -6.093694|   -8.017741|    0.824239|    0.012023|
|        5314|   -6.095231|   -8.022886|    0.824239|    0.012023|
|        5315|   -6.096759|   -8.028132|    0.824239|    0.012023|
|        5316|   -6.098327|   -8.033479|    0.824239|    0.012023|
|        5317|   -6.099978|   -8.038927|    0.824239|    0.012023|
|        5318|   -6.101751|   -8.044478|    0.824239|    0.012023|
|        5319|   -6.103678|   -8.050134|    0.824240|    0.012023|
|        5320|   -6.105785|   -8.055898|    0.824240|    0.012023|
|        5321|   -6.108093|   -8.061770|    0.824240|    0.012023|
|        5322|   -6.110612|   -8.067753|    0.824240|    0.012023|
|        5323|   -6.113351|   -8.073848|    0.824240|    0.012023|
|        5324|   -6.116308|   -8.080055|    0.824240|    0.012023|
|        5325|   -6.119477|   -8.086372|    0.824240|    0.012023|
|        5326|   -6.122844|   -8.092798|    0.824241|    0.012023|
|        5327|   -6.126391|   -8.099330|    0.824241|    0.012023|
|        5328|   -6.130092|   -8.105962|    0.824241|    0.012023|
|        5329|   -6.133920|   -8.112687|    0.824241|    0.012023|
|        5330|   -6.137839|   -8.119496|    0.824241|    0.012024|
|        5331|   -6.141813|   -8.126381|    0.824241|    0.012024|
|        5332|   -6.145803|   -8.133330|    0.824241|    0.012024|
|        5333|   -6.149766|   -8.140332|    0.824242|    0.012024|
|        5334|   -6.153663|   -8.147377|    0.824242|    0.012024|
|        5335|   -6.157453|   -8.154452|    0.824242|    0.012024|
|        5336|   -6.161100|   -8.161546|    0.824242|    0.012024|
|        5337|   -6.164569|   -8.168650|    0.824242|    0.012024|
|        5338|   -6.167834|   -8.175752|    0.824242|    0.012024|
|        5339|   -6.170871|   -8.182844|    0.824242|    0.012024|
|        5340|   -6.173666|   -8.189919|    0.824243|    0.012024|
|        5341|   -6.176212|   -8.196968|    0.824243|    0.012025|
|        5342|   -6.178510|   -8.203988|    0.824243|    0.012025|
|        5343|   -6.180570|   -8.210976|    0.824243|    0.012025|
|        5344|   -6.182409|   -8.217928|    0.824243|    0.012025|
|        5345|   -6.184049|   -8.224844|    0.824243|    0.012025|
|        5346|   -6.185522|   -8.231726|    0.824243|    0.012025|
|        5347|   -6.186863|   -8.238578|    0.824243|    0.012025|
|        5348|   -6.188108|   -8.245401|    0.824243|    0.012025|
|        5349|   -6.189300|   -8.252200|    0.824243|    0.012025|
|        5350|   -6.190482|   -8.258976|    0.824243|    0.012025|
|        5351|   -6.191697|   -8.265737|    0.824244|    0.012025|
|        5352|   -6.192987|   -8.272486|    0.824244|    0.012025|
|        5353|   -6.194391|   -8.279229|    0.824244|    0.012025|
|        5354|   -6.195949|   -8.285971|    0.824244|    0.012025|
|        5355|   -6.197693|   -8.292717|    0.824244|    0.012025|
|        5356|   -6.199655|   -8.299470|    0.824244|    0.012025|
|        5357|   -6.201861|   -8.306232|    0.824244|    0.012025|
|        5358|   -6.204334|   -8.313005|    0.824244|    0.012025|
|        5359|   -6.207091|   -8.319788|    0.824244|    0.012025|
|        5360|   -6.210144|   -8.326577|    0.824244|    0.012025|
|        5361|   -6.213502|   -8.333368|    0.824244|    0.012025|
|        5362|   -6.217167|   -8.340158|    0.824244|    0.012025|
|        5363|   -6.221138|   -8.346938|    0.824244|    0.012025|
|        5364|   -6.225408|   -8.353702|    0.824244|    0.012025|
|        5365|   -6.229965|   -8.360443|    0.824244|    0.012025|
|        5366|   -6.234793|   -8.367151|    0.824244|    0.012025|
|        5367|   -6.239869|   -8.373819|    0.824244|    0.012025|
|        5368|   -6.245169|   -8.380440|    0.824244|    0.012025|
|        5369|   -6.250661|   -8.387009|    0.824244|    0.012025|
|        5370|   -6.256310|   -8.393522|    0.824244|    0.012025|
|        5371|   -6.262078|   -8.399970|    0.824244|    0.012025|
|        5372|   -6.267923|   -8.406349|    0.824244|    0.012025|
|        5373|   -6.273800|   -8.412653|    0.824244|    0.012025|
|        5374|   -6.279662|   -8.418881|    0.824244|    0.012025|
|        5375|   -6.285459|   -8.425033|    0.824244|    0.012025|
|        5376|   -6.291146|   -8.431109|    0.824244|    0.012025|
|        5377|   -6.296673|   -8.437114|    0.824243|    0.012025|
|        5378|   -6.301995|   -8.443053|    0.824243|    0.012025|
|        5379|   -6.307070|   -8.448932|    0.824243|    0.012024|
|        5380|   -6.311860|   -8.454758|    0.824243|    0.012024|
|        5381|   -6.316333|   -8.460541|    0.824243|    0.012024|
|        5382|   -6.320460|   -8.466290|    0.824243|    0.012024|
|        5383|   -6.324223|   -8.472016|    0.824243|    0.012024|
|        5384|   -6.327609|   -8.477727|    0.824244|    0.012024|
|        5385|   -6.330613|   -8.483434|    0.824244|    0.012024|
|        5386|   -6.333235|   -8.489144|    0.824244|    0.012024|
|        5387|   -6.335485|   -8.494864|    0.824244|    0.012024|
|        5388|   -6.337376|   -8.500599|    0.824244|    0.012024|
|        5389|   -6.338927|   -8.506352|    0.824244|    0.012024|
|        5390|   -6.340160|   -8.512121|    0.824244|    0.012023|
|        5391|   -6.341102|   -8.517902|    0.824244|    0.012023|
|        5392|   -6.341780|   -8.523690|    0.824244|    0.012023|
|        5393|   -6.342220|   -8.529473|    0.824244|    0.012023|
|        5394|   -6.342451|   -8.535238|    0.824244|    0.012023|
|        5395|   -6.342499|   -8.540968|    0.824244|    0.012023|
|        5396|   -6.342390|   -8.546641|    0.824245|    0.012023|
|        5397|   -6.342145|   -8.552235|    0.824245|    0.012023|
|        5398|   -6.341786|   -8.557723|    0.824245|    0.012023|
|        5399|   -6.341330|   -8.563078|    0.824245|    0.012023|
|        5400|   -6.340793|   -8.568272|    0.824245|    0.012022|
|        5401|   -6.340188|   -8.573276|    0.824245|    0.012022|
|        5402|   -6.339525|   -8.578063|    0.824245|    0.012022|
|        5403|   -6.338814|   -8.582606|    0.824246|    0.012022|
|        5404|   -6.338061|   -8.586884|    0.824246|    0.012022|
|        5405|   -6.337272|   -8.590878|    0.824246|    0.012022|
|        5406|   -6.336451|   -8.594573|    0.824246|    0.012022|
|        5407|   -6.335601|   -8.597960|    0.824246|    0.012022|
|        5408|   -6.334725|   -8.601037|    0.824247|    0.012022|
|        5409|   -6.333826|   -8.603805|    0.824247|    0.012022|
|        5410|   -6.332906|   -8.606272|    0.824247|    0.012022|
|        5411|   -6.331966|   -8.608450|    0.824247|    0.012022|
|        5412|   -6.331010|   -8.610357|    0.824247|    0.012021|
|        5413|   -6.330041|   -8.612013|    0.824247|    0.012021|
|        5414|   -6.329061|   -8.613441|    0.824248|    0.012021|
|        5415|   -6.328075|   -8.614666|    0.824248|    0.012021|
|        5416|   -6.327088|   -8.615713|    0.824248|    0.012021|
|        5417|   -6.326103|   -8.616609|    0.824248|    0.012021|
|        5418|   -6.325127|   -8.617377|    0.824248|    0.012021|
|        5419|   -6.324166|   -8.618040|    0.824248|    0.012021|
|        5420|   -6.323228|   -8.618619|    0.824249|    0.012021|
|        5421|   -6.322321|   -8.619132|    0.824249|    0.012021|
|        5422|   -6.321453|   -8.619596|    0.824249|    0.012021|
|        5423|   -6.320633|   -8.620023|    0.824249|    0.012021|
|        5424|   -6.319873|   -8.620424|    0.824249|    0.012021|
|        5425|   -6.319182|   -8.620806|    0.824249|    0.012021|
|        5426|   -6.318573|   -8.621178|    0.824249|    0.012021|
|        5427|   -6.318057|   -8.621543|    0.824250|    0.012021|
|        5428|   -6.317648|   -8.621904|    0.824250|    0.012021|
|        5429|   -6.317360|   -8.622266|    0.824250|    0.012021|
|        5430|   -6.317205|   -8.622630|    0.824250|    0.012021|
|        5431|   -6.317198|   -8.623000|    0.824250|    0.012021|
|        5432|   -6.317352|   -8.623380|    0.824250|    0.012021|
|        5433|   -6.317683|   -8.623773|    0.824250|    0.012021|
|        5434|   -6.318204|   -8.624185|    0.824250|    0.012021|
|        5435|   -6.318928|   -8.624622|    0.824250|    0.012021|
|        5436|   -6.319868|   -8.625092|    0.824250|    0.012021|
|        5437|   -6.321037|   -8.625602|    0.824250|    0.012021|
|        5438|   -6.322445|   -8.626163|    0.824250|    0.012021|
|        5439|   -6.324101|   -8.626784|    0.824250|    0.012021|
|        5440|   -6.326015|   -8.627476|    0.824250|    0.012021|
|        5441|   -6.328192|   -8.628251|    0.824250|    0.012021|
|        5442|   -6.330636|   -8.629121|    0.824250|    0.012021|
|        5443|   -6.333350|   -8.630098|    0.824250|    0.012021|
|        5444|   -6.336334|   -8.631192|    0.824250|    0.012021|
|        5445|   -6.339583|   -8.632415|    0.824250|    0.012021|
|        5446|   -6.343093|   -8.633775|    0.824250|    0.012022|
|        5447|   -6.346855|   -8.635280|    0.824250|    0.012022|
|        5448|   -6.350855|   -8.636938|    0.824250|    0.012022|
|        5449|   -6.355079|   -8.638755|    0.824250|    0.012022|
|        5450|   -6.359508|   -8.640736|    0.824250|    0.012022|
|        5451|   -6.364117|   -8.642884|    0.824250|    0.012022|
|        5452|   -6.368882|   -8.645202|    0.824250|    0.012022|
|        5453|   -6.373771|   -8.647690|    0.824250|    0.012022|
|        5454|   -6.378753|   -8.650348|    0.824250|    0.012022|
|        5455|   -6.383789|   -8.653175|    0.824250|    0.012022|
|        5456|   -6.388841|   -8.656169|    0.824250|    0.012022|
|        5457|   -6.393866|   -8.659325|    0.824250|    0.012022|
|        5458|   -6.398821|   -8.662638|    0.824250|    0.012022|
|        5459|   -6.403660|   -8.666105|    0.824250|    0.012023|
|        5460|   -6.408337|   -8.669717|    0.824250|    0.012023|
|        5461|   -6.412810|   -8.673469|    0.824250|    0.012023|
|        5462|   -6.417035|   -8.677352|    0.824250|    0.012023|
|        5463|   -6.420972|   -8.681359|    0.824249|    0.012023|
|        5464|   -6.424585|   -8.685483|    0.824249|    0.012023|
|        5465|   -6.427842|   -8.689716|    0.824249|    0.012023|
|        5466|   -6.430719|   -8.694049|    0.824249|    0.012023|
|        5467|   -6.433195|   -8.698473|    0.824249|    0.012023|
|        5468|   -6.435259|   -8.702980|    0.824249|    0.012023|
|        5469|   -6.436907|   -8.707560|    0.824249|    0.012023|
|        5470|   -6.438143|   -8.712202|    0.824249|    0.012023|
|        5471|   -6.438976|   -8.716897|    0.824248|    0.012023|
|        5472|   -6.439424|   -8.721634|    0.824248|    0.012023|
|        5473|   -6.439511|   -8.726400|    0.824248|    0.012023|
|        5474|   -6.439266|   -8.731185|    0.824248|    0.012023|
|        5475|   -6.438722|   -8.735975|    0.824248|    0.012024|
|        5476|   -6.437916|   -8.740758|    0.824248|    0.012024|
|        5477|   -6.436887|   -8.745520|    0.824248|    0.012024|
|        5478|   -6.435675|   -8.750248|    0.824247|    0.012024|
|        5479|   -6.434321|   -8.754926|    0.824247|    0.012024|
|        5480|   -6.432866|   -8.759541|    0.824247|    0.012024|
|        5481|   -6.431349|   -8.764077|    0.824247|    0.012024|
|        5482|   -6.429808|   -8.768520|    0.824247|    0.012024|
|        5483|   -6.428278|   -8.772856|    0.824247|    0.012024|
|        5484|   -6.426794|   -8.777070|    0.824246|    0.012024|
|        5485|   -6.425385|   -8.781150|    0.824246|    0.012024|
|        5486|   -6.424079|   -8.785084|    0.824246|    0.012024|
|        5487|   -6.422903|   -8.788861|    0.824246|    0.012024|
|        5488|   -6.421876|   -8.792473|    0.824246|    0.012024|
|        5489|   -6.421021|   -8.795913|    0.824246|    0.012024|
|        5490|   -6.420352|   -8.799176|    0.824246|    0.012024|
|        5491|   -6.419884|   -8.802258|    0.824246|    0.012024|
|        5492|   -6.419629|   -8.805159|    0.824245|    0.012024|
|        5493|   -6.419596|   -8.807880|    0.824245|    0.012024|
|        5494|   -6.419792|   -8.810423|    0.824245|    0.012024|
|        5495|   -6.420223|   -8.812794|    0.824245|    0.012024|
|        5496|   -6.420893|   -8.815000|    0.824245|    0.012024|
|        5497|   -6.421802|   -8.817048|    0.824245|    0.012023|
|        5498|   -6.422951|   -8.818948|    0.824245|    0.012023|
|        5499|   -6.424340|   -8.820709|    0.824245|    0.012009|
+-----------------------------------------------------------------------+
|Fixed CL Mode (Finite Difference)       |Value                         |
+-----------------------------------------------------------------------+
|Delta CL / Delta AoA                    |0.244549                      |
|Delta CD / Delta CL                     |0.0176214                     |
|Delta CMz / Delta CL                    |0.00317374                    |
+-----------------------------------------------------------------------+
Writing Flow Meta-Data file: flow.meta

----------------------------- Solver Exit -------------------------------

Maximum number of iterations reached (ITER = 5500) before convergence.
+-----------------------------------------------------------------------+
|      Convergence Field     |     Value    |   Criterion  |  Converged |
+-----------------------------------------------------------------------+
|                    rms[Rho]|      -6.42434|         < -12|          No|
+-----------------------------------------------------------------------+
-------------------------------------------------------------------------

--------------------------- Finalizing Solver ---------------------------
Deleted CNumerics container.
Deleted CIntegration container.
Deleted CSolver container.
Deleted CIteration container.
Deleted CInterface container.
Deleted CGeometry container.
Deleted CFreeFormDefBox class.
Deleted CSurfaceMovement class.
Deleted CVolumetricMovement class.
Deleted CConfig container.
Deleted nInst container.
Deleted COutput class.
-------------------------------------------------------------------------

------------------------- Exit Success (SU2_CFD) ------------------------


-------------------------------------------------------------------------
|    ___ _   _ ___                                                      |
|   / __| | | |_  )   Release 8.0.0 "Harrier"                           |
|   \__ \ |_| |/ /                                                      |
|   |___/\___//___|   Suite (Solution Exporting Code)                   |
|                                                                       |
-------------------------------------------------------------------------
| SU2 Project Website: https://su2code.github.io                        |
|                                                                       |
| The SU2 Project is maintained by the SU2 Foundation                   |
| (http://su2foundation.org)                                            |
-------------------------------------------------------------------------
| Copyright 2012-2023, SU2 Contributors                                 |
|                                                                       |
| SU2 is free software; you can redistribute it and/or                  |
| modify it under the terms of the GNU Lesser General Public            |
| License as published by the Free Software Foundation; either          |
| version 2.1 of the License, or (at your option) any later version.    |
|                                                                       |
| SU2 is distributed in the hope that it will be useful,                |
| but WITHOUT ANY WARRANTY; without even the implied warranty of        |
| MERCHANTABILITY or FITNESS FOR A PARTICULAR PURPOSE. See the GNU      |
| Lesser General Public License for more details.                       |
|                                                                       |
| You should have received a copy of the GNU Lesser General Public      |
| License along with SU2. If not, see <http://www.gnu.org/licenses/>.   |
-------------------------------------------------------------------------

----------------- Physical Case Definition ( Zone 0 ) -------------------
Input mesh file name: mesh_RAE2822_turb_deform.su2

-------------------- Output Information ( Zone 0 ) ----------------------
The tabular file format is CSV (.csv).
Flow variables file name: flow.

------------- Config File Boundary Information ( Zone 0 ) ---------------
+-----------------------------------------------------------------------+
|                        Marker Type|                        Marker Name|
+-----------------------------------------------------------------------+
|                          Far-field|                           FARFIELD|
+-----------------------------------------------------------------------+
|                     Heat flux wall|                            AIRFOIL|
+-----------------------------------------------------------------------+
Two dimensional problem.
13937 grid points before partitioning.
22842 volume elements before partitioning.
2 surface markers.
192 boundary elements in index 0 (Marker = AIRFOIL).
40 boundary elements in index 1 (Marker = FARFIELD).
Executing the partitioning functions.
Building the graph adjacency structure.
Calling ParMETIS... graph partitioning complete (831 edge cuts).
Distributing ParMETIS coloring.
Rebalancing vertices.
Rebalancing volume element connectivity.
Rebalancing markers and surface elements.
14875 vertices including ghost points. 
23674 interior elements including halo cells. 
18780 triangles.
4894 quadrilaterals.
Establishing MPI communication patterns.
Identify vertices.
Storing a mapping from global to local point index.

------------------------- Solution Postprocessing -----------------------
Reading and storing the solution from restart_flow.
Volume output fields: COORDINATES, SOLUTION
  Info: Ignoring the following screen output fields:
  RMS_DENSITY, RMS_NU_TILDE, LIFT, DRAG
Screen output fields: INNER_ITER
  Info: Ignoring the following history output groups:
  RMS_RES, AERO_COEFF
History output group(s): ITER
Warning: No (valid) fields chosen for convergence monitoring. Convergence monitoring inactive.
Warning: No (valid) fields chosen for time convergence monitoring. Time convergence monitoring inactive.
|Paraview                           |flow.vtu                           |
|Paraview surface                   |surface_flow.vtu                   |
|CSV file                           |surface_flow.csv                   |

------------------------- Finalize Solver -------------------------
Deleted CGeometry container.
Deleted CSolver class.
Deleted CConfig container.
Deleted COutput class.

Completed in 0.016741 seconds on 6 cores.

------------------------- Exit Success (SU2_SOL) ------------------------

