
-------------------------------------------------------------------------
|    ___ _   _ ___                                                      |
|   / __| | | |_  )   Release 8.0.0 "Harrier"                           |
|   \__ \ |_| |/ /                                                      |
|   |___/\___//___|   Suite (Computational Fluid Dynamics Code)         |
|                                                                       |
-------------------------------------------------------------------------
| SU2 Project Website: https://su2code.github.io                        |
|                                                                       |
| The SU2 Project is maintained by the SU2 Foundation                   |
| (http://su2foundation.org)                                            |
-------------------------------------------------------------------------
| Copyright 2012-2023, SU2 Contributors                                 |
|                                                                       |
| SU2 is free software; you can redistribute it and/or                  |
| modify it under the terms of the GNU Lesser General Public            |
| License as published by the Free Software Foundation; either          |
| version 2.1 of the License, or (at your option) any later version.    |
|                                                                       |
| SU2 is distributed in the hope that it will be useful,                |
| but WITHOUT ANY WARRANTY; without even the implied warranty of        |
| MERCHANTABILITY or FITNESS FOR A PARTICULAR PURPOSE. See the GNU      |
| Lesser General Public License for more details.                       |
|                                                                       |
| You should have received a copy of the GNU Lesser General Public      |
| License along with SU2. If not, see <http://www.gnu.org/licenses/>.   |
-------------------------------------------------------------------------

Parsing config file for zone 0

----------------- Physical Case Definition ( Zone 0 ) -------------------
Compressible RANS equations.
Turbulence model: Spalart-Allmaras-noft2
Hybrid RANS/LES: No Hybrid RANS/LES
Mach number: 0.734.
Angle of attack (AoA): 2.31 deg, and angle of sideslip (AoS): 0 deg.
Reynolds number: 6.5e+06. Reference length 1.
Fixed CL mode, target value: 0.824.
Reading and writing binary SU2 native restart files.
Read flow solution from: solution_flow.dat.
Dimensional simulation.
The reference area is 1 m^2.
The semi-span will be computed using the max y(3D) value.
The reference length is 1 m.
Reference origin for moment evaluation is (0.25, 0, 0).
Surface(s) where the force coefficients are evaluated: AIRFOIL.

Surface(s) plotted in the output file: AIRFOIL.
Surface(s) affected by the design variables: AIRFOIL.
Input mesh file name: mesh_RAE2822_turb_deform.su2

--------------- Space Numerical Integration ( Zone 0 ) ------------------
Jameson-Schmidt-Turkel scheme (2nd order in space) for the flow inviscid terms.
JST viscous coefficients (2nd & 4th): 0.5, 0.02.
The method includes a grid stretching correction (p = 0.3).
Scalar upwind solver for the turbulence model.
First order integration in space.
Average of gradients with correction (viscous flow terms).
Average of gradients with correction (viscous turbulence terms).
Gradient for viscous and source terms: inverse-distance weighted Least-Squares.

--------------- Time Numerical Integration  ( Zone 0 ) ------------------
Local time stepping (steady state simulation).
Euler implicit method for the flow equations.
FGMRES is used for solving the linear system.
Using a ILU(0) preconditioning.
Convergence criteria of the linear solver: 1e-06.
Max number of linear iterations: 10.
No CFL adaptation.
Courant-Friedrichs-Lewy number:       10
Euler implicit time integration for the turbulence model.

------------------ Convergence Criteria  ( Zone 0 ) ---------------------
Maximum number of solver subiterations: 5500.
Begin convergence monitoring at iteration 10.
Residual minimum value: 1e-12.
Cauchy series min. value: 1e-06.
Number of Cauchy elements: 100.
Begin windowed time average at iteration 0.

-------------------- Output Information ( Zone 0 ) ----------------------
File writing frequency: 
+------------------------------------+
|                     File| Frequency|
+------------------------------------+
|                  RESTART|     10000|
|                 PARAVIEW|     10000|
|         SURFACE_PARAVIEW|     10000|
|              SURFACE_CSV|     10000|
+------------------------------------+
Writing the convergence history file every 1 inner iterations.
Writing the screen convergence history every 1 inner iterations.
The tabular file format is CSV (.csv).
Convergence history file name: history_direct.
Forces breakdown file name: forces_breakdown.dat.
Surface file name: surface_flow.
Volume file name: flow.
Restart file name: restart_flow.dat.

------------- Config File Boundary Information ( Zone 0 ) ---------------
+-----------------------------------------------------------------------+
|                        Marker Type|                        Marker Name|
+-----------------------------------------------------------------------+
|                          Far-field|                           FARFIELD|
+-----------------------------------------------------------------------+
|                     Heat flux wall|                            AIRFOIL|
+-----------------------------------------------------------------------+

-------------------- Output Preprocessing ( Zone 0 ) --------------------

WARNING: SURFACE_PRESSURE_DROP can only be computed for at least 2 surfaces (outlet, inlet, ...)

Screen output fields: INNER_ITER, RMS_DENSITY, RMS_NU_TILDE, LIFT, DRAG
History output group(s): ITER, RMS_RES, AERO_COEFF
Convergence field(s): RMS_DENSITY
Warning: No (valid) fields chosen for time convergence monitoring. Time convergence monitoring inactive.
Volume output fields: COORDINATES, SOLUTION, PRIMITIVE

------------------- Geometry Preprocessing ( Zone 0 ) -------------------
Two dimensional problem.
13937 grid points before partitioning.
22842 volume elements before partitioning.
2 surface markers.
192 boundary elements in index 0 (Marker = AIRFOIL).
40 boundary elements in index 1 (Marker = FARFIELD).
Executing the partitioning functions.
Building the graph adjacency structure.
Calling ParMETIS... graph partitioning complete (831 edge cuts).
Distributing ParMETIS coloring.
Rebalancing vertices.
Rebalancing volume element connectivity.
Rebalancing markers and surface elements.
14875 vertices including ghost points. 
23674 interior elements including halo cells. 
18780 triangles.
4894 quadrilaterals.
Establishing MPI communication patterns.
Setting point connectivity.
Renumbering points (Reverse Cuthill McKee Ordering).
Recomputing point connectivity.
Setting element connectivity.
Checking the numerical grid orientation.
All volume elements are correctly orientend.
All surface elements are correctly orientend.
Identifying edges and vertices.
Setting the control volume structure.
Area of the computational grid: 32209.9.
Searching for the closest normal neighbors to the surfaces.
Storing a mapping from global to local point index.
Compute the surface curvature.
Max K: 175.467. Mean K: 7.85776. Standard deviation K: 24.1155.
Checking for periodicity.
Computing mesh quality statistics for the dual control volumes.
+--------------------------------------------------------------+
|           Mesh Quality Metric|        Minimum|        Maximum|
+--------------------------------------------------------------+
|    Orthogonality Angle (deg.)|        75.1143|        89.9992|
|     CV Face Area Aspect Ratio|        1.00414|        3358.48|
|           CV Sub-Volume Ratio|        1.00046|        1215.43|
+--------------------------------------------------------------+
Finding max control volume width.
Communicating number of neighbors.
Wetted area = 2.02182 m.
Area projection in the x-plane = 0.124945 m, y-plane = 0.995873 m.
Max. coordinate in the x-direction = 1 m, y-direction = 0.0621004 m.
Min. coordinate in the x-direction = 0 m, y-direction = -0.0599632 m.
Computing wall distances.

-------------------- Solver Preprocessing ( Zone 0 ) --------------------
WARNING: AoA in the solution file (2.78894 deg.) +
         AoA offset in mesh file (0 deg.) = 2.78894 deg.
WARNING: SU2 will use the dCD/dCL provided in the direct solution file: 0.018124.
WARNING: SU2 will use the dCMz/dCL provided in the direct solution file: 0.00584739.
Viscous flow: Computing pressure using the ideal gas law
based on the free-stream temperature and a density computed
from the Reynolds number.
Force coefficients computed using free-stream values.

-- Models:
+------------------------------------------------------------------------------+
|          Viscosity Model|        Conductivity Model|              Fluid Model|
+------------------------------------------------------------------------------+
|               SUTHERLAND|          CONSTANT_PRANDTL|             STANDARD_AIR|
+------------------------------------------------------------------------------+
-- Fluid properties:
+------------------------------------------------------------------------------+
|                  Name|    Dim. value|    Ref. value|      Unit|Non-dim. value|
+------------------------------------------------------------------------------+
|        Ref. Viscosity|     1.716e-05|             1|   N.s/m^2|     1.716e-05|
|      Sutherland Temp.|        273.15|             1|         K|        273.15|
|     Sutherland Const.|         110.4|             1|         K|         110.4|
+------------------------------------------------------------------------------+
|        Prandtl (Lam.)|             -|             -|         -|          0.71|
|       Prandtl (Turb.)|             -|             -|         -|           0.9|
+------------------------------------------------------------------------------+
|          Gas Constant|       287.058|             1|  N.m/kg.K|       287.058|
|      Spec. Heat Ratio|             -|             -|         -|           1.4|
+------------------------------------------------------------------------------+
-- Initial and free-stream conditions:
+------------------------------------------------------------------------------+
|                  Name|    Dim. value|    Ref. value|      Unit|Non-dim. value|
+------------------------------------------------------------------------------+
|       Static Pressure|         38515|             1|        Pa|         38515|
|               Density|      0.465631|             1|    kg/m^3|      0.465631|
|           Temperature|        288.15|             1|         K|        288.15|
|          Total Energy|        237984|             1|   m^2/s^2|        237984|
|            Velocity-X|       249.482|             1|       m/s|       249.482|
|            Velocity-Y|       12.1534|             1|       m/s|       12.1534|
|    Velocity Magnitude|       249.778|             1|       m/s|       249.778|
+------------------------------------------------------------------------------+
|             Viscosity|    1.7893e-05|             1|   N.s/m^2|    1.7893e-05|
|          Conductivity|             -|             1|   W/m^2.K|             -|
|     Turb. Kin. Energy|       233.959|             1|   m^2/s^2|       233.959|
|     Spec. Dissipation|        608834|             1|       1/s|        608834|
+------------------------------------------------------------------------------+
|           Mach Number|             -|             -|         -|         0.734|
|       Reynolds Number|             -|             -|         -|       6.5e+06|
+------------------------------------------------------------------------------+
Initialize Jacobian structure (Navier-Stokes). MG level: 0.
Initialize Jacobian structure (SA model).

------------------- Numerics Preprocessing ( Zone 0 ) -------------------

----------------- Integration Preprocessing ( Zone 0 ) ------------------

------------------- Iteration Preprocessing ( Zone 0 ) ------------------
Euler/Navier-Stokes/RANS fluid iteration.

------------------------------ Begin Solver -----------------------------

Simulation Run using the Single-zone Driver
WARNING: SU2 was not compiled for an AVX-capable architecture. Performance could be better,
         see https://su2code.github.io/docs_v7/Build-SU2-Linux-MacOS/#compiler-optimizations
+----------------------------------------------------------------+
|  Inner_Iter|    rms[Rho]|     rms[nu]|          CL|          CD|
+----------------------------------------------------------------+
|           0|   -4.951694|   -6.119555|    0.824069|    0.011977|
|           1|   -5.018481|   -6.224540|    0.824118|    0.011991|
|           2|   -5.090693|   -6.337734|    0.824150|    0.011998|
|           3|   -5.142511|   -6.455476|    0.824168|    0.012002|
|           4|   -5.176568|   -6.579140|    0.824176|    0.012003|
|           5|   -5.200718|   -6.700996|    0.824179|    0.012003|
|           6|   -5.216042|   -6.789070|    0.824181|    0.012003|
|           7|   -5.221282|   -6.812018|    0.824183|    0.012005|
|           8|   -5.217309|   -6.792407|    0.824185|    0.012008|
|           9|   -5.206567|   -6.769110|    0.824188|    0.012011|
|          10|   -5.191560|   -6.757188|    0.824191|    0.012016|
|          11|   -5.174607|   -6.756253|    0.824194|    0.012020|
|          12|   -5.157853|   -6.760060|    0.824196|    0.012025|
|          13|   -5.142948|   -6.761970|    0.824199|    0.012030|
|          14|   -5.130715|   -6.758345|    0.824200|    0.012036|
|          15|   -5.121122|   -6.749339|    0.824201|    0.012041|
|          16|   -5.113547|   -6.737098|    0.824202|    0.012046|
|          17|   -5.107181|   -6.723650|    0.824202|    0.012052|
|          18|   -5.101412|   -6.709949|    0.824202|    0.012057|
|          19|   -5.096032|   -6.696154|    0.824201|    0.012063|
|          20|   -5.091209|   -6.682234|    0.824200|    0.012069|
|          21|   -5.087286|   -6.668352|    0.824199|    0.012074|
|          22|   -5.084524|   -6.654958|    0.824198|    0.012079|
|          23|   -5.082947|   -6.642686|    0.824196|    0.012084|
|          24|   -5.082304|   -6.632203|    0.824194|    0.012088|
|          25|   -5.082155|   -6.624081|    0.824192|    0.012092|
|          26|   -5.082012|   -6.618724|    0.824191|    0.012095|
|          27|   -5.081479|   -6.616333|    0.824189|    0.012097|
|          28|   -5.080337|   -6.616915|    0.824187|    0.012099|
|          29|   -5.078560|   -6.620286|    0.824185|    0.012101|
|          30|   -5.076263|   -6.626103|    0.824184|    0.012102|
|          31|   -5.073639|   -6.633888|    0.824182|    0.012102|
|          32|   -5.070893|   -6.643059|    0.824180|    0.012102|
|          33|   -5.068199|   -6.652961|    0.824179|    0.012102|
|          34|   -5.065684|   -6.662905|    0.824177|    0.012101|
|          35|   -5.063428|   -6.672216|    0.824175|    0.012100|
|          36|   -5.061461|   -6.680297|    0.824173|    0.012099|
|          37|   -5.059775|   -6.686695|    0.824171|    0.012098|
|          38|   -5.058327|   -6.691161|    0.824168|    0.012096|
|          39|   -5.057056|   -6.693676|    0.824165|    0.012095|
|          40|   -5.055887|   -6.694451|    0.824162|    0.012093|
|          41|   -5.054743|   -6.693870|    0.824158|    0.012092|
|          42|   -5.053559|   -6.692426|    0.824153|    0.012090|
|          43|   -5.052287|   -6.690637|    0.824148|    0.012088|
|          44|   -5.050902|   -6.688988|    0.824143|    0.012086|
|          45|   -5.049396|   -6.687887|    0.824138|    0.012085|
|          46|   -5.047774|   -6.687636|    0.824133|    0.012083|
|          47|   -5.046045|   -6.688429|    0.824128|    0.012081|
|          48|   -5.044214|   -6.690351|    0.824123|    0.012079|
|          49|   -5.042277|   -6.693393|    0.824118|    0.012077|
|          50|   -5.040222|   -6.697459|    0.824114|    0.012074|
|          51|   -5.038027|   -6.702373|    0.824111|    0.012072|
|          52|   -5.035672|   -6.707897|    0.824109|    0.012070|
|          53|   -5.033137|   -6.713745|    0.824108|    0.012068|
|          54|   -5.030414|   -6.719599|    0.824109|    0.012066|
|          55|   -5.027504|   -6.725133|    0.824110|    0.012064|
|          56|   -5.024420|   -6.730050|    0.824113|    0.012062|
|          57|   -5.021187|   -6.734102|    0.824117|    0.012060|
|          58|   -5.017837|   -6.737129|    0.824123|    0.012058|
|          59|   -5.014405|   -6.739063|    0.824130|    0.012056|
|          60|   -5.010930|   -6.739932|    0.824137|    0.012054|
|          61|   -5.007447|   -6.739840|    0.824146|    0.012052|
|          62|   -5.003993|   -6.738942|    0.824156|    0.012051|
|          63|   -5.000597|   -6.737404|    0.824166|    0.012050|
|          64|   -4.997284|   -6.735387|    0.824176|    0.012048|
|          65|   -4.994075|   -6.733028|    0.824187|    0.012047|
|          66|   -4.990986|   -6.730438|    0.824198|    0.012046|
|          67|   -4.988024|   -6.727708|    0.824209|    0.012045|
|          68|   -4.985194|   -6.724928|    0.824220|    0.012044|
|          69|   -4.982493|   -6.722189|    0.824230|    0.012043|
|          70|   -4.979919|   -6.719600|    0.824240|    0.012042|
|          71|   -4.977466|   -6.717284|    0.824249|    0.012042|
|          72|   -4.975130|   -6.715376|    0.824258|    0.012041|
|          73|   -4.972908|   -6.714006|    0.824266|    0.012040|
|          74|   -4.970799|   -6.713290|    0.824274|    0.012040|
|          75|   -4.968804|   -6.713312|    0.824281|    0.012039|
|          76|   -4.966923|   -6.714116|    0.824288|    0.012038|
|          77|   -4.965155|   -6.715704|    0.824294|    0.012038|
|          78|   -4.963495|   -6.718033|    0.824300|    0.012037|
|          79|   -4.961935|   -6.721023|    0.824305|    0.012037|
|          80|   -4.960463|   -6.724566|    0.824310|    0.012037|
|          81|   -4.959061|   -6.728537|    0.824315|    0.012036|
|          82|   -4.957712|   -6.732808|    0.824320|    0.012036|
|          83|   -4.956398|   -6.737257|    0.824324|    0.012036|
|          84|   -4.955105|   -6.741781|    0.824328|    0.012036|
|          85|   -4.953823|   -6.746295|    0.824332|    0.012036|
|          86|   -4.952551|   -6.750737|    0.824336|    0.012036|
|          87|   -4.951295|   -6.755066|    0.824340|    0.012036|
|          88|   -4.950067|   -6.759253|    0.824344|    0.012036|
|          89|   -4.948890|   -6.763285|    0.824347|    0.012036|
|          90|   -4.947787|   -6.767148|    0.824351|    0.012036|
|          91|   -4.946786|   -6.770836|    0.824354|    0.012036|
|          92|   -4.945918|   -6.774339|    0.824357|    0.012036|
|          93|   -4.945207|   -6.777650|    0.824361|    0.012037|
|          94|   -4.944679|   -6.780760|    0.824364|    0.012037|
|          95|   -4.944353|   -6.783660|    0.824367|    0.012038|
|          96|   -4.944241|   -6.786346|    0.824371|    0.012038|
|          97|   -4.944352|   -6.788812|    0.824374|    0.012039|
|          98|   -4.944686|   -6.791059|    0.824377|    0.012039|
|          99|   -4.945236|   -6.793091|    0.824381|    0.012040|
|         100|   -4.945988|   -6.794914|    0.824384|    0.012041|
|         101|   -4.946920|   -6.796538|    0.824388|    0.012014|
+-----------------------------------------------------------------------+
|Fixed CL Mode                           |Value                         |
+-----------------------------------------------------------------------+
|Current CL                              |0.824388                      |
|Target CL                               |0.824                         |
|Previous AOA                            |2.78894                       |
|Changed AoA by                          |-0.00191965                   |
+-----------------------------------------------------------------------+
+----------------------------------------------------------------+
|  Inner_Iter|    rms[Rho]|     rms[nu]|          CL|          CD|
+----------------------------------------------------------------+
|         102|   -2.910076|   -6.728492|    0.824391|    0.012015|
|         103|   -3.293801|   -6.762031|    0.824395|    0.012015|
|         104|   -3.536259|   -6.773364|    0.824399|    0.012016|
|         105|   -3.614955|   -6.779981|    0.824402|    0.012017|
|         106|   -3.669259|   -6.784849|    0.824406|    0.012018|
|         107|   -3.739815|   -6.788698|    0.824410|    0.012019|
|         108|   -3.827276|   -6.791789|    0.824413|    0.012020|
|         109|   -3.919211|   -6.794293|    0.824417|    0.012021|
|         110|   -3.999080|   -6.796325|    0.824421|    0.012022|
|         111|   -4.057904|   -6.797943|    0.824424|    0.012023|
|         112|   -4.096643|   -6.799203|    0.824427|    0.012024|
|         113|   -4.118809|   -6.800225|    0.824430|    0.012026|
|         114|   -4.128296|   -6.801151|    0.824433|    0.012027|
|         115|   -4.131321|   -6.802092|    0.824436|    0.012028|
|         116|   -4.134902|   -6.803095|    0.824439|    0.012029|
|         117|   -4.143701|   -6.804170|    0.824441|    0.012030|
|         118|   -4.158791|   -6.805331|    0.824443|    0.012031|
|         119|   -4.178302|   -6.806610|    0.824445|    0.012032|
|         120|   -4.198973|   -6.808056|    0.824447|    0.012032|
|         121|   -4.218040|   -6.809709|    0.824449|    0.012033|
|         122|   -4.234564|   -6.811593|    0.824450|    0.012034|
|         123|   -4.249357|   -6.813707|    0.824451|    0.012035|
|         124|   -4.263810|   -6.816044|    0.824452|    0.012035|
|         125|   -4.278792|   -6.818586|    0.824453|    0.012036|
|         126|   -4.294305|   -6.821323|    0.824454|    0.012037|
|         127|   -4.309735|   -6.824248|    0.824454|    0.012037|
|         128|   -4.324279|   -6.827359|    0.824455|    0.012038|
|         129|   -4.337245|   -6.830652|    0.824455|    0.012038|
|         130|   -4.348196|   -6.834125|    0.824455|    0.012038|
|         131|   -4.357012|   -6.837782|    0.824455|    0.012039|
|         132|   -4.363942|   -6.841626|    0.824455|    0.012039|
|         133|   -4.369598|   -6.845650|    0.824455|    0.012039|
|         134|   -4.374840|   -6.849868|    0.824455|    0.012039|
|         135|   -4.380570|   -6.854288|    0.824455|    0.012039|
|         136|   -4.387534|   -6.858908|    0.824454|    0.012039|
|         137|   -4.396185|   -6.863729|    0.824454|    0.012040|
|         138|   -4.406629|   -6.868746|    0.824453|    0.012040|
|         139|   -4.418622|   -6.873946|    0.824452|    0.012039|
|         140|   -4.431606|   -6.879326|    0.824451|    0.012039|
|         141|   -4.444788|   -6.884879|    0.824449|    0.012039|
|         142|   -4.457293|   -6.890611|    0.824447|    0.012039|
|         143|   -4.468374|   -6.896528|    0.824445|    0.012039|
|         144|   -4.477625|   -6.902636|    0.824443|    0.012039|
|         145|   -4.485104|   -6.908939|    0.824440|    0.012038|
|         146|   -4.491302|   -6.915446|    0.824436|    0.012038|
|         147|   -4.496966|   -6.922166|    0.824432|    0.012038|
|         148|   -4.502869|   -6.929108|    0.824428|    0.012037|
|         149|   -4.509627|   -6.936285|    0.824423|    0.012037|
|         150|   -4.517585|   -6.943684|    0.824417|    0.012036|
|         151|   -4.526796|   -6.951299|    0.824410|    0.012035|
|         152|   -4.537058|   -6.959129|    0.824403|    0.012035|
|         153|   -4.547987|   -6.967174|    0.824395|    0.012034|
|         154|   -4.559117|   -6.975430|    0.824386|    0.012033|
|         155|   -4.570003|   -6.983841|    0.824377|    0.012032|
|         156|   -4.580303|   -6.992399|    0.824366|    0.012031|
|         157|   -4.589834|   -7.001082|    0.824355|    0.012030|
|         158|   -4.598578|   -7.009869|    0.824343|    0.012029|
|         159|   -4.606648|   -7.018745|    0.824331|    0.012028|
|         160|   -4.614228|   -7.027705|    0.824317|    0.012027|
|         161|   -4.621516|   -7.036745|    0.824303|    0.012025|
|         162|   -4.628674|   -7.045860|    0.824288|    0.012024|
|         163|   -4.635808|   -7.055057|    0.824273|    0.012023|
|         164|   -4.642963|   -7.064341|    0.824258|    0.012021|
|         165|   -4.650137|   -7.073726|    0.824242|    0.012020|
|         166|   -4.657298|   -7.083221|    0.824226|    0.012018|
|         167|   -4.664407|   -7.092821|    0.824209|    0.012016|
|         168|   -4.671425|   -7.102501|    0.824193|    0.012015|
|         169|   -4.678329|   -7.112219|    0.824177|    0.012013|
|         170|   -4.685105|   -7.121910|    0.824161|    0.012012|
|         171|   -4.691745|   -7.131486|    0.824145|    0.012010|
|         172|   -4.698244|   -7.140838|    0.824130|    0.012009|
|         173|   -4.704589|   -7.149835|    0.824115|    0.012007|
|         174|   -4.710763|   -7.158326|    0.824101|    0.012006|
|         175|   -4.716737|   -7.166150|    0.824087|    0.012004|
|         176|   -4.722477|   -7.173133|    0.824075|    0.012003|
|         177|   -4.727947|   -7.179104|    0.824063|    0.012001|
|         178|   -4.733113|   -7.183910|    0.824053|    0.012000|
|         179|   -4.737946|   -7.187432|    0.824043|    0.011999|
|         180|   -4.742429|   -7.189588|    0.824035|    0.011998|
|         181|   -4.746553|   -7.190366|    0.824027|    0.011996|
|         182|   -4.750326|   -7.189821|    0.824021|    0.011995|
|         183|   -4.753765|   -7.188076|    0.824016|    0.011994|
|         184|   -4.756902|   -7.185298|    0.824013|    0.011993|
|         185|   -4.759778|   -7.181701|    0.824010|    0.011992|
|         186|   -4.762445|   -7.177531|    0.824009|    0.011992|
|         187|   -4.764962|   -7.173051|    0.824009|    0.011991|
|         188|   -4.767394|   -7.168513|    0.824010|    0.011990|
|         189|   -4.769811|   -7.164155|    0.824012|    0.011990|
|         190|   -4.772281|   -7.160194|    0.824015|    0.011989|
|         191|   -4.774875|   -7.156821|    0.824019|    0.011988|
|         192|   -4.777658|   -7.154201|    0.824024|    0.011988|
|         193|   -4.780691|   -7.152471|    0.824029|    0.011987|
|         194|   -4.784028|   -7.151748|    0.824036|    0.011987|
|         195|   -4.787714|   -7.152126|    0.824043|    0.011987|
|         196|   -4.791783|   -7.153675|    0.824051|    0.011986|
|         197|   -4.796259|   -7.156442|    0.824059|    0.011986|
|         198|   -4.801152|   -7.160459|    0.824068|    0.011986|
|         199|   -4.806462|   -7.165735|    0.824077|    0.011986|
|         200|   -4.812173|   -7.172263|    0.824086|    0.011985|
|         201|   -4.818258|   -7.180014|    0.824096|    0.011979|
+-----------------------------------------------------------------------+
|Fixed CL Mode                           |Value                         |
+-----------------------------------------------------------------------+
|Current CL                              |0.824096                      |
|Target CL                               |0.824                         |
|Previous AOA                            |2.78702                       |
|Changed AoA by                          |-0.000431092                  |
+-----------------------------------------------------------------------+
+----------------------------------------------------------------+
|  Inner_Iter|    rms[Rho]|     rms[nu]|          CL|          CD|
+----------------------------------------------------------------+
|         202|   -3.558151|   -7.163370|    0.824106|    0.011979|
|         203|   -3.937121|   -7.184403|    0.824116|    0.011979|
|         204|   -4.164642|   -7.198598|    0.824126|    0.011979|
|         205|   -4.233232|   -7.212243|    0.824136|    0.011979|
|         206|   -4.281622|   -7.226184|    0.824147|    0.011979|
|         207|   -4.345260|   -7.240463|    0.824157|    0.011979|
|         208|   -4.422860|   -7.254931|    0.824166|    0.011979|
|         209|   -4.502590|   -7.269371|    0.824176|    0.011979|
|         210|   -4.571363|   -7.283502|    0.824186|    0.011979|
|         211|   -4.623616|   -7.296983|    0.824195|    0.011980|
|         212|   -4.660831|   -7.309459|    0.824204|    0.011980|
|         213|   -4.685387|   -7.320624|    0.824212|    0.011980|
|         214|   -4.699432|   -7.330247|    0.824220|    0.011980|
|         215|   -4.706882|   -7.338165|    0.824228|    0.011981|
|         216|   -4.712829|   -7.344281|    0.824235|    0.011981|
|         217|   -4.721124|   -7.348581|    0.824242|    0.011981|
|         218|   -4.733053|   -7.351152|    0.824248|    0.011982|
|         219|   -4.747690|   -7.352178|    0.824253|    0.011982|
|         220|   -4.763155|   -7.351910|    0.824258|    0.011983|
|         221|   -4.777983|   -7.350632|    0.824263|    0.011983|
|         222|   -4.791853|   -7.348614|    0.824266|    0.011984|
|         223|   -4.805359|   -7.346115|    0.824270|    0.011984|
|         224|   -4.819222|   -7.343375|    0.824272|    0.011985|
|         225|   -4.833667|   -7.340599|    0.824274|    0.011985|
|         226|   -4.848305|   -7.337959|    0.824275|    0.011986|
|         227|   -4.862394|   -7.335598|    0.824276|    0.011987|
|         228|   -4.875211|   -7.333629|    0.824276|    0.011987|
|         229|   -4.886313|   -7.332134|    0.824275|    0.011988|
|         230|   -4.895618|   -7.331172|    0.824274|    0.011988|
|         231|   -4.903380|   -7.330775|    0.824273|    0.011989|
|         232|   -4.910117|   -7.330952|    0.824270|    0.011990|
|         233|   -4.916510|   -7.331692|    0.824268|    0.011990|
|         234|   -4.923274|   -7.332964|    0.824265|    0.011991|
|         235|   -4.931029|   -7.334720|    0.824261|    0.011992|
|         236|   -4.940186|   -7.336901|    0.824257|    0.011992|
|         237|   -4.950890|   -7.339438|    0.824252|    0.011993|
|         238|   -4.963004|   -7.342257|    0.824248|    0.011993|
|         239|   -4.976126|   -7.345284|    0.824243|    0.011994|
|         240|   -4.989636|   -7.348448|    0.824237|    0.011995|
|         241|   -5.002783|   -7.351685|    0.824232|    0.011995|
|         242|   -5.014806|   -7.354945|    0.824226|    0.011996|
|         243|   -5.025105|   -7.358184|    0.824220|    0.011996|
|         244|   -5.033380|   -7.361373|    0.824214|    0.011997|
|         245|   -5.039699|   -7.364500|    0.824208|    0.011997|
|         246|   -5.044452|   -7.367563|    0.824201|    0.011998|
|         247|   -5.048203|   -7.370572|    0.824195|    0.011998|
|         248|   -5.051525|   -7.373548|    0.824189|    0.011999|
|         249|   -5.054864|   -7.376517|    0.824182|    0.012000|
|         250|   -5.058469|   -7.379502|    0.824176|    0.012000|
|         251|   -5.062391|   -7.382536|    0.824170|    0.012001|
|         252|   -5.066529|   -7.385650|    0.824163|    0.012001|
|         253|   -5.070696|   -7.388874|    0.824157|    0.012002|
|         254|   -5.074694|   -7.392231|    0.824151|    0.012002|
|         255|   -5.078382|   -7.395729|    0.824145|    0.012003|
|         256|   -5.081703|   -7.399367|    0.824139|    0.012003|
|         257|   -5.084703|   -7.403119|    0.824133|    0.012003|
|         258|   -5.087504|   -7.406957|    0.824127|    0.012004|
|         259|   -5.090277|   -7.410845|    0.824121|    0.012004|
|         260|   -5.093202|   -7.414737|    0.824115|    0.012005|
|         261|   -5.096443|   -7.418579|    0.824109|    0.012005|
|         262|   -5.100124|   -7.422315|    0.824103|    0.012005|
|         263|   -5.104331|   -7.425891|    0.824097|    0.012006|
|         264|   -5.109111|   -7.429259|    0.824091|    0.012006|
|         265|   -5.114485|   -7.432380|    0.824085|    0.012006|
|         266|   -5.120455|   -7.435227|    0.824079|    0.012007|
|         267|   -5.127015|   -7.437797|    0.824073|    0.012007|
|         268|   -5.134156|   -7.440109|    0.824067|    0.012007|
|         269|   -5.141870|   -7.442204|    0.824061|    0.012007|
|         270|   -5.150149|   -7.444142|    0.824055|    0.012007|
|         271|   -5.158981|   -7.446000|    0.824049|    0.012007|
|         272|   -5.168349|   -7.447868|    0.824043|    0.012007|
|         273|   -5.178224|   -7.449846|    0.824037|    0.012007|
|         274|   -5.188563|   -7.452038|    0.824031|    0.012007|
|         275|   -5.199312|   -7.454544|    0.824025|    0.012007|
|         276|   -5.210398|   -7.457456|    0.824019|    0.012007|
|         277|   -5.221735|   -7.460848|    0.824014|    0.012007|
|         278|   -5.233221|   -7.464775|    0.824008|    0.012007|
|         279|   -5.244746|   -7.469267|    0.824003|    0.012007|
|         280|   -5.256184|   -7.474324|    0.823997|    0.012007|
|         281|   -5.267409|   -7.479915|    0.823992|    0.012006|
|         282|   -5.278286|   -7.485976|    0.823987|    0.012006|
|         283|   -5.288683|   -7.492405|    0.823982|    0.012006|
|         284|   -5.298474|   -7.499066|    0.823977|    0.012005|
|         285|   -5.307543|   -7.505785|    0.823973|    0.012005|
|         286|   -5.315789|   -7.512363|    0.823968|    0.012004|
|         287|   -5.323134|   -7.518579|    0.823964|    0.012004|
|         288|   -5.329522|   -7.524205|    0.823961|    0.012003|
|         289|   -5.334928|   -7.529031|    0.823957|    0.012003|
|         290|   -5.339353|   -7.532881|    0.823954|    0.012002|
|         291|   -5.342827|   -7.535632|    0.823951|    0.012002|
|         292|   -5.345405|   -7.537221|    0.823949|    0.012001|
|         293|   -5.347164|   -7.537660|    0.823946|    0.012000|
|         294|   -5.348197|   -7.537044|    0.823944|    0.012000|
|         295|   -5.348609|   -7.535530|    0.823943|    0.011999|
|         296|   -5.348510|   -7.533328|    0.823941|    0.011998|
|         297|   -5.348014|   -7.530683|    0.823940|    0.011998|
|         298|   -5.347232|   -7.527856|    0.823939|    0.011997|
|         299|   -5.346270|   -7.525104|    0.823939|    0.011997|
|         300|   -5.345226|   -7.522667|    0.823938|    0.011996|
|         301|   -5.344192|   -7.520763|    0.823938|    0.012000|
+-----------------------------------------------------------------------+
|Fixed CL Mode                           |Value                         |
+-----------------------------------------------------------------------+
|Current CL                              |0.823938                      |
|Target CL                               |0.824                         |
|Previous AOA                            |2.78658                       |
|Changed AoA by                          |0.000308666                   |
+-----------------------------------------------------------------------+
+----------------------------------------------------------------+
|  Inner_Iter|    rms[Rho]|     rms[nu]|          CL|          CD|
+----------------------------------------------------------------+
|         302|   -3.703810|   -7.470598|    0.823938|    0.011999|
|         303|   -4.089895|   -7.495088|    0.823939|    0.011999|
|         304|   -4.341080|   -7.502976|    0.823939|    0.011998|
|         305|   -4.425278|   -7.508249|    0.823940|    0.011998|
|         306|   -4.480968|   -7.513310|    0.823941|    0.011997|
|         307|   -4.551526|   -7.518733|    0.823942|    0.011997|
|         308|   -4.637461|   -7.524635|    0.823943|    0.011996|
|         309|   -4.724308|   -7.530997|    0.823944|    0.011996|
|         310|   -4.793725|   -7.537718|    0.823946|    0.011995|
|         311|   -4.838316|   -7.544628|    0.823947|    0.011995|
|         312|   -4.862999|   -7.551530|    0.823948|    0.011995|
|         313|   -4.874505|   -7.558252|    0.823950|    0.011994|
|         314|   -4.878018|   -7.564634|    0.823951|    0.011994|
|         315|   -4.878933|   -7.570484|    0.823953|    0.011994|
|         316|   -4.882377|   -7.575567|    0.823954|    0.011994|
|         317|   -4.891419|   -7.579631|    0.823955|    0.011994|
|         318|   -4.906325|   -7.582468|    0.823957|    0.011994|
|         319|   -4.925059|   -7.583945|    0.823958|    0.011994|
|         320|   -4.944553|   -7.584024|    0.823959|    0.011994|
|         321|   -4.962318|   -7.582747|    0.823960|    0.011994|
|         322|   -4.977544|   -7.580227|    0.823961|    0.011994|
|         323|   -4.991008|   -7.576635|    0.823961|    0.011994|
|         324|   -5.004049|   -7.572189|    0.823962|    0.011994|
|         325|   -5.017612|   -7.567141|    0.823962|    0.011994|
|         326|   -5.031919|   -7.561756|    0.823963|    0.011994|
|         327|   -5.046632|   -7.556289|    0.823963|    0.011995|
|         328|   -5.061154|   -7.550978|    0.823963|    0.011995|
|         329|   -5.074861|   -7.546023|    0.823963|    0.011995|
|         330|   -5.087216|   -7.541591|    0.823963|    0.011995|
|         331|   -5.097878|   -7.537816|    0.823963|    0.011996|
|         332|   -5.106808|   -7.534791|    0.823962|    0.011996|
|         333|   -5.114340|   -7.532578|    0.823962|    0.011996|
|         334|   -5.121121|   -7.531212|    0.823962|    0.011997|
|         335|   -5.127944|   -7.530698|    0.823961|    0.011997|
|         336|   -5.135550|   -7.531022|    0.823961|    0.011997|
|         337|   -5.144474|   -7.532142|    0.823960|    0.011998|
|         338|   -5.154963|   -7.534004|    0.823960|    0.011998|
|         339|   -5.166956|   -7.536534|    0.823959|    0.011999|
|         340|   -5.180099|   -7.539646|    0.823959|    0.011999|
|         341|   -5.193814|   -7.543240|    0.823959|    0.011999|
|         342|   -5.207410|   -7.547205|    0.823958|    0.012000|
|         343|   -5.220251|   -7.551434|    0.823958|    0.012000|
|         344|   -5.231929|   -7.555818|    0.823958|    0.012001|
|         345|   -5.242386|   -7.560252|    0.823957|    0.012001|
|         346|   -5.251921|   -7.564633|    0.823957|    0.012002|
|         347|   -5.261077|   -7.568867|    0.823957|    0.012002|
|         348|   -5.270476|   -7.572866|    0.823957|    0.012003|
|         349|   -5.280644|   -7.576560|    0.823958|    0.012003|
|         350|   -5.291903|   -7.579896|    0.823958|    0.012004|
|         351|   -5.304325|   -7.582840|    0.823958|    0.012004|
|         352|   -5.317738|   -7.585376|    0.823959|    0.012005|
|         353|   -5.331783|   -7.587505|    0.823959|    0.012005|
|         354|   -5.345992|   -7.589244|    0.823960|    0.012006|
|         355|   -5.359881|   -7.590628|    0.823961|    0.012006|
|         356|   -5.373037|   -7.591695|    0.823962|    0.012007|
|         357|   -5.385185|   -7.592492|    0.823963|    0.012007|
|         358|   -5.396211|   -7.593066|    0.823964|    0.012007|
|         359|   -5.406139|   -7.593465|    0.823965|    0.012008|
|         360|   -5.415085|   -7.593731|    0.823967|    0.012008|
|         361|   -5.423196|   -7.593898|    0.823968|    0.012009|
|         362|   -5.430599|   -7.593993|    0.823970|    0.012009|
|         363|   -5.437374|   -7.594034|    0.823971|    0.012010|
|         364|   -5.443550|   -7.594031|    0.823972|    0.012010|
|         365|   -5.449115|   -7.593983|    0.823974|    0.012011|
|         366|   -5.454038|   -7.593888|    0.823975|    0.012011|
|         367|   -5.458293|   -7.593733|    0.823977|    0.012012|
|         368|   -5.461873|   -7.593505|    0.823978|    0.012012|
|         369|   -5.464796|   -7.593190|    0.823979|    0.012012|
|         370|   -5.467109|   -7.592773|    0.823980|    0.012013|
|         371|   -5.468878|   -7.592240|    0.823981|    0.012013|
|         372|   -5.470180|   -7.591585|    0.823982|    0.012013|
|         373|   -5.471098|   -7.590805|    0.823983|    0.012014|
|         374|   -5.471715|   -7.589904|    0.823984|    0.012014|
|         375|   -5.472113|   -7.588892|    0.823984|    0.012014|
|         376|   -5.472368|   -7.587789|    0.823984|    0.012015|
|         377|   -5.472554|   -7.586618|    0.823984|    0.012015|
|         378|   -5.472744|   -7.585409|    0.823984|    0.012015|
|         379|   -5.473007|   -7.584199|    0.823984|    0.012015|
|         380|   -5.473410|   -7.583023|    0.823983|    0.012015|
|         381|   -5.474016|   -7.581923|    0.823983|    0.012015|
|         382|   -5.474882|   -7.580939|    0.823982|    0.012015|
|         383|   -5.476058|   -7.580107|    0.823981|    0.012015|
|         384|   -5.477590|   -7.579465|    0.823979|    0.012015|
|         385|   -5.479512|   -7.579044|    0.823978|    0.012015|
|         386|   -5.481854|   -7.578870|    0.823976|    0.012015|
|         387|   -5.484637|   -7.578966|    0.823975|    0.012015|
|         388|   -5.487875|   -7.579345|    0.823973|    0.012015|
|         389|   -5.491575|   -7.580017|    0.823971|    0.012015|
|         390|   -5.495736|   -7.580984|    0.823968|    0.012015|
|         391|   -5.500354|   -7.582241|    0.823966|    0.012015|
|         392|   -5.505415|   -7.583779|    0.823964|    0.012015|
|         393|   -5.510900|   -7.585582|    0.823961|    0.012015|
|         394|   -5.516783|   -7.587629|    0.823959|    0.012014|
|         395|   -5.523034|   -7.589895|    0.823956|    0.012014|
|         396|   -5.529615|   -7.592351|    0.823953|    0.012014|
|         397|   -5.536481|   -7.594966|    0.823951|    0.012014|
|         398|   -5.543585|   -7.597707|    0.823948|    0.012013|
|         399|   -5.550870|   -7.600543|    0.823945|    0.012013|
|         400|   -5.558277|   -7.603441|    0.823943|    0.012013|
|         401|   -5.565742|   -7.606370|    0.823940|    0.012017|
+-----------------------------------------------------------------------+
|Fixed CL Mode                           |Value                         |
+-----------------------------------------------------------------------+
|Current CL                              |0.82394                       |
|Target CL                               |0.824                         |
|Previous AOA                            |2.78689                       |
|Changed AoA by                          |0.000287238                   |
+-----------------------------------------------------------------------+
+----------------------------------------------------------------+
|  Inner_Iter|    rms[Rho]|     rms[nu]|          CL|          CD|
+----------------------------------------------------------------+
|         402|   -3.734904|   -7.543868|    0.823937|    0.012016|
|         403|   -4.117843|   -7.577265|    0.823935|    0.012016|
|         404|   -4.359372|   -7.589599|    0.823932|    0.012016|
|         405|   -4.438578|   -7.597541|    0.823930|    0.012015|
|         406|   -4.493394|   -7.603936|    0.823927|    0.012015|
|         407|   -4.563913|   -7.609481|    0.823925|    0.012015|
|         408|   -4.650619|   -7.614392|    0.823922|    0.012014|
|         409|   -4.740920|   -7.618790|    0.823920|    0.012014|
|         410|   -4.818460|   -7.622746|    0.823918|    0.012014|
|         411|   -4.874967|   -7.626293|    0.823916|    0.012013|
|         412|   -4.912110|   -7.629464|    0.823914|    0.012013|
|         413|   -4.933722|   -7.632360|    0.823912|    0.012013|
|         414|   -4.943599|   -7.635116|    0.823910|    0.012012|
|         415|   -4.947512|   -7.637834|    0.823909|    0.012012|
|         416|   -4.952019|   -7.640560|    0.823907|    0.012012|
|         417|   -4.961539|   -7.643302|    0.823906|    0.012011|
|         418|   -4.977116|   -7.646071|    0.823904|    0.012011|
|         419|   -4.996978|   -7.648900|    0.823903|    0.012011|
|         420|   -5.018019|   -7.651838|    0.823902|    0.012011|
|         421|   -5.037617|   -7.654924|    0.823901|    0.012010|
|         422|   -5.054910|   -7.658175|    0.823900|    0.012010|
|         423|   -5.070705|   -7.661579|    0.823899|    0.012010|
|         424|   -5.086345|   -7.665111|    0.823898|    0.012010|
|         425|   -5.102637|   -7.668744|    0.823897|    0.012009|
|         426|   -5.119504|   -7.672448|    0.823897|    0.012009|
|         427|   -5.136222|   -7.676197|    0.823896|    0.012009|
|         428|   -5.151851|   -7.679972|    0.823896|    0.012009|
|         429|   -5.165558|   -7.683762|    0.823896|    0.012008|
|         430|   -5.176785|   -7.687554|    0.823896|    0.012008|
|         431|   -5.185348|   -7.691351|    0.823896|    0.012008|
|         432|   -5.191494|   -7.695142|    0.823896|    0.012008|
|         433|   -5.195882|   -7.698928|    0.823896|    0.012008|
|         434|   -5.199438|   -7.702712|    0.823896|    0.012008|
|         435|   -5.203119|   -7.706493|    0.823897|    0.012008|
|         436|   -5.207693|   -7.710266|    0.823897|    0.012008|
|         437|   -5.213609|   -7.714030|    0.823898|    0.012008|
|         438|   -5.220946|   -7.717780|    0.823898|    0.012008|
|         439|   -5.229440|   -7.721521|    0.823899|    0.012008|
|         440|   -5.238545|   -7.725258|    0.823900|    0.012008|
|         441|   -5.247534|   -7.729000|    0.823901|    0.012008|
|         442|   -5.255666|   -7.732758|    0.823902|    0.012008|
|         443|   -5.262374|   -7.736555|    0.823903|    0.012008|
|         444|   -5.267433|   -7.740412|    0.823904|    0.012008|
|         445|   -5.271023|   -7.744354|    0.823905|    0.012008|
|         446|   -5.273658|   -7.748407|    0.823907|    0.012008|
|         447|   -5.276014|   -7.752594|    0.823908|    0.012008|
|         448|   -5.278747|   -7.756935|    0.823909|    0.012008|
|         449|   -5.282343|   -7.761444|    0.823911|    0.012009|
|         450|   -5.287052|   -7.766142|    0.823912|    0.012009|
|         451|   -5.292891|   -7.771045|    0.823914|    0.012009|
|         452|   -5.299681|   -7.776164|    0.823915|    0.012009|
|         453|   -5.307128|   -7.781500|    0.823917|    0.012009|
|         454|   -5.314900|   -7.787063|    0.823919|    0.012010|
|         455|   -5.322700|   -7.792858|    0.823920|    0.012010|
|         456|   -5.330331|   -7.798887|    0.823922|    0.012010|
|         457|   -5.337711|   -7.805143|    0.823924|    0.012010|
|         458|   -5.344873|   -7.811614|    0.823926|    0.012011|
|         459|   -5.351930|   -7.818287|    0.823928|    0.012011|
|         460|   -5.359037|   -7.825146|    0.823930|    0.012011|
|         461|   -5.366345|   -7.832171|    0.823932|    0.012012|
|         462|   -5.373973|   -7.839337|    0.823934|    0.012012|
|         463|   -5.381996|   -7.846612|    0.823936|    0.012012|
|         464|   -5.390441|   -7.853962|    0.823938|    0.012012|
|         465|   -5.399297|   -7.861347|    0.823940|    0.012013|
|         466|   -5.408529|   -7.868722|    0.823942|    0.012013|
|         467|   -5.418086|   -7.876039|    0.823944|    0.012013|
|         468|   -5.427916|   -7.883247|    0.823946|    0.012014|
|         469|   -5.437967|   -7.890291|    0.823948|    0.012014|
|         470|   -5.448191|   -7.897116|    0.823950|    0.012014|
|         471|   -5.458537|   -7.903668|    0.823952|    0.012015|
|         472|   -5.468951|   -7.909890|    0.823954|    0.012015|
|         473|   -5.479368|   -7.915725|    0.823955|    0.012015|
|         474|   -5.489714|   -7.921119|    0.823957|    0.012015|
|         475|   -5.499903|   -7.926019|    0.823959|    0.012016|
|         476|   -5.509839|   -7.930377|    0.823960|    0.012016|
|         477|   -5.519423|   -7.934151|    0.823961|    0.012016|
|         478|   -5.528552|   -7.937309|    0.823962|    0.012017|
|         479|   -5.537133|   -7.939829|    0.823963|    0.012017|
|         480|   -5.545082|   -7.941701|    0.823964|    0.012017|
|         481|   -5.552329|   -7.942932|    0.823964|    0.012017|
|         482|   -5.558825|   -7.943541|    0.823965|    0.012018|
|         483|   -5.564541|   -7.943572|    0.823965|    0.012018|
|         484|   -5.569472|   -7.943084|    0.823965|    0.012018|
|         485|   -5.573631|   -7.942157|    0.823965|    0.012018|
|         486|   -5.577053|   -7.940892|    0.823964|    0.012018|
|         487|   -5.579789|   -7.939393|    0.823964|    0.012018|
|         488|   -5.581902|   -7.937777|    0.823963|    0.012019|
|         489|   -5.583467|   -7.936168|    0.823962|    0.012019|
|         490|   -5.584562|   -7.934693|    0.823961|    0.012019|
|         491|   -5.585269|   -7.933482|    0.823960|    0.012019|
|         492|   -5.585667|   -7.932665|    0.823959|    0.012019|
|         493|   -5.585831|   -7.932368|    0.823957|    0.012019|
|         494|   -5.585829|   -7.932712|    0.823955|    0.012019|
|         495|   -5.585722|   -7.933806|    0.823954|    0.012019|
|         496|   -5.585562|   -7.935755|    0.823952|    0.012019|
|         497|   -5.585392|   -7.938647|    0.823950|    0.012019|
|         498|   -5.585248|   -7.942559|    0.823948|    0.012019|
|         499|   -5.585155|   -7.947547|    0.823946|    0.012019|
|         500|   -5.585133|   -7.953651|    0.823944|    0.012019|
|         501|   -5.585195|   -7.960891|    0.823941|    0.012023|
+-----------------------------------------------------------------------+
|Fixed CL Mode                           |Value                         |
+-----------------------------------------------------------------------+
|Current CL                              |0.823941                      |
|Target CL                               |0.824                         |
|Previous AOA                            |2.78718                       |
|Changed AoA by                          |0.000282295                   |
+-----------------------------------------------------------------------+
+----------------------------------------------------------------+
|  Inner_Iter|    rms[Rho]|     rms[nu]|          CL|          CD|
+----------------------------------------------------------------+
|         502|   -3.742492|   -7.743506|    0.823939|    0.012023|
|         503|   -4.125124|   -7.833079|    0.823937|    0.012023|
|         504|   -4.364681|   -7.872254|    0.823934|    0.012023|
|         505|   -4.442080|   -7.900119|    0.823932|    0.012023|
|         506|   -4.496009|   -7.924621|    0.823930|    0.012023|
|         507|   -4.565968|   -7.947655|    0.823927|    0.012023|
|         508|   -4.652315|   -7.969569|    0.823925|    0.012023|
|         509|   -4.742818|   -7.990350|    0.823923|    0.012023|
|         510|   -4.821673|   -8.009701|    0.823920|    0.012023|
|         511|   -4.880613|   -8.026976|    0.823918|    0.012023|
|         512|   -4.920620|   -8.041454|    0.823916|    0.012022|
|         513|   -4.944716|   -8.052849|    0.823914|    0.012022|
|         514|   -4.956174|   -8.061274|    0.823912|    0.012022|
|         515|   -4.960738|   -8.066859|    0.823910|    0.012022|
|         516|   -4.965286|   -8.069560|    0.823908|    0.012022|
|         517|   -4.974585|   -8.069283|    0.823907|    0.012022|
|         518|   -4.989901|   -8.066176|    0.823905|    0.012022|
|         519|   -5.009581|   -8.060722|    0.823904|    0.012021|
|         520|   -5.030588|   -8.053599|    0.823902|    0.012021|
|         521|   -5.050346|   -8.045432|    0.823901|    0.012021|
|         522|   -5.068011|   -8.036691|    0.823900|    0.012021|
|         523|   -5.084373|   -8.027672|    0.823899|    0.012021|
|         524|   -5.100723|   -8.018546|    0.823898|    0.012020|
|         525|   -5.117783|   -8.009460|    0.823898|    0.012020|
|         526|   -5.135370|   -8.000552|    0.823897|    0.012020|
|         527|   -5.152659|   -7.991960|    0.823897|    0.012020|
|         528|   -5.168641|   -7.983808|    0.823896|    0.012020|
|         529|   -5.182479|   -7.976202|    0.823896|    0.012020|
|         530|   -5.193688|   -7.969225|    0.823896|    0.012019|
|         531|   -5.202207|   -7.962903|    0.823896|    0.012019|
|         532|   -5.208424|   -7.957267|    0.823896|    0.012019|
|         533|   -5.213117|   -7.952312|    0.823896|    0.012019|
|         534|   -5.217289|   -7.948008|    0.823897|    0.012019|
|         535|   -5.221928|   -7.944306|    0.823897|    0.012019|
|         536|   -5.227801|   -7.941133|    0.823898|    0.012018|
|         537|   -5.235333|   -7.938400|    0.823899|    0.012018|
|         538|   -5.244562|   -7.936015|    0.823900|    0.012018|
|         539|   -5.255170|   -7.933902|    0.823900|    0.012018|
|         540|   -5.266526|   -7.931986|    0.823901|    0.012018|
|         541|   -5.277800|   -7.930206|    0.823902|    0.012018|
|         542|   -5.288130|   -7.928523|    0.823904|    0.012018|
|         543|   -5.296834|   -7.926914|    0.823905|    0.012018|
|         544|   -5.303616|   -7.925374|    0.823906|    0.012018|
|         545|   -5.308652|   -7.923908|    0.823907|    0.012018|
|         546|   -5.312518|   -7.922528|    0.823909|    0.012018|
|         547|   -5.315997|   -7.921246|    0.823910|    0.012017|
|         548|   -5.319857|   -7.920076|    0.823912|    0.012017|
|         549|   -5.324678|   -7.919014|    0.823913|    0.012017|
|         550|   -5.330768|   -7.918069|    0.823915|    0.012017|
|         551|   -5.338160|   -7.917254|    0.823917|    0.012017|
|         552|   -5.346657|   -7.916574|    0.823918|    0.012017|
|         553|   -5.355909|   -7.916019|    0.823920|    0.012017|
|         554|   -5.365511|   -7.915579|    0.823922|    0.012017|
|         555|   -5.375090|   -7.915250|    0.823924|    0.012017|
|         556|   -5.384378|   -7.915024|    0.823926|    0.012017|
|         557|   -5.393247|   -7.914892|    0.823928|    0.012017|
|         558|   -5.401712|   -7.914844|    0.823931|    0.012017|
|         559|   -5.409894|   -7.914869|    0.823933|    0.012017|
|         560|   -5.417968|   -7.914967|    0.823935|    0.012018|
|         561|   -5.426114|   -7.915143|    0.823937|    0.012018|
|         562|   -5.434478|   -7.915407|    0.823940|    0.012018|
|         563|   -5.443151|   -7.915779|    0.823942|    0.012018|
|         564|   -5.452171|   -7.916284|    0.823945|    0.012018|
|         565|   -5.461528|   -7.916953|    0.823947|    0.012018|
|         566|   -5.471185|   -7.917825|    0.823950|    0.012018|
|         567|   -5.481094|   -7.918940|    0.823952|    0.012018|
|         568|   -5.491206|   -7.920341|    0.823955|    0.012018|
|         569|   -5.501482|   -7.922065|    0.823957|    0.012018|
|         570|   -5.511892|   -7.924146|    0.823960|    0.012018|
|         571|   -5.522410|   -7.926609|    0.823962|    0.012018|
|         572|   -5.533012|   -7.929466|    0.823965|    0.012019|
|         573|   -5.543668|   -7.932711|    0.823967|    0.012019|
|         574|   -5.554338|   -7.936321|    0.823969|    0.012019|
|         575|   -5.564971|   -7.940250|    0.823972|    0.012019|
|         576|   -5.575504|   -7.944428|    0.823974|    0.012019|
|         577|   -5.585869|   -7.948759|    0.823976|    0.012019|
|         578|   -5.595993|   -7.953127|    0.823977|    0.012019|
|         579|   -5.605802|   -7.957392|    0.823979|    0.012019|
|         580|   -5.615231|   -7.961402|    0.823981|    0.012019|
|         581|   -5.624219|   -7.964993|    0.823982|    0.012019|
|         582|   -5.632720|   -7.968008|    0.823983|    0.012019|
|         583|   -5.640700|   -7.970299|    0.823984|    0.012020|
|         584|   -5.648139|   -7.971749|    0.823985|    0.012020|
|         585|   -5.655034|   -7.972275|    0.823986|    0.012020|
|         586|   -5.661394|   -7.971844|    0.823986|    0.012020|
|         587|   -5.667245|   -7.970472|    0.823987|    0.012020|
|         588|   -5.672622|   -7.968229|    0.823987|    0.012020|
|         589|   -5.677575|   -7.965229|    0.823987|    0.012020|
|         590|   -5.682156|   -7.961626|    0.823986|    0.012020|
|         591|   -5.686425|   -7.957599|    0.823986|    0.012020|
|         592|   -5.690444|   -7.953342|    0.823986|    0.012020|
|         593|   -5.694273|   -7.949049|    0.823985|    0.012020|
|         594|   -5.697971|   -7.944909|    0.823984|    0.012020|
|         595|   -5.701589|   -7.941093|    0.823983|    0.012020|
|         596|   -5.705175|   -7.937751|    0.823982|    0.012020|
|         597|   -5.708770|   -7.935009|    0.823981|    0.012020|
|         598|   -5.712405|   -7.932962|    0.823979|    0.012020|
|         599|   -5.716108|   -7.931678|    0.823978|    0.012020|
|         600|   -5.719897|   -7.931195|    0.823976|    0.012020|
|         601|   -5.723784|   -7.931520|    0.823975|    0.012022|
+-----------------------------------------------------------------------+
|Fixed CL Mode                           |Value                         |
+-----------------------------------------------------------------------+
|Current CL                              |0.823975                      |
|Target CL                               |0.824                         |
|Previous AOA                            |2.78746                       |
|Changed AoA by                          |0.000117672                   |
+-----------------------------------------------------------------------+
+----------------------------------------------------------------+
|  Inner_Iter|    rms[Rho]|     rms[nu]|          CL|          CD|
+----------------------------------------------------------------+
|         602|   -4.122447|   -7.879283|    0.823973|    0.012022|
|         603|   -4.503678|   -7.905255|    0.823971|    0.012022|
|         604|   -4.738170|   -7.915421|    0.823970|    0.012021|
|         605|   -4.811929|   -7.922766|    0.823968|    0.012021|
|         606|   -4.863954|   -7.929271|    0.823966|    0.012021|
|         607|   -4.932078|   -7.935282|    0.823964|    0.012021|
|         608|   -5.016211|   -7.940802|    0.823962|    0.012021|
|         609|   -5.104687|   -7.945747|    0.823960|    0.012021|
|         610|   -5.183072|   -7.949975|    0.823959|    0.012021|
|         611|   -5.243955|   -7.953277|    0.823957|    0.012021|
|         612|   -5.287788|   -7.955453|    0.823955|    0.012021|
|         613|   -5.316368|   -7.956378|    0.823953|    0.012021|
|         614|   -5.331741|   -7.955996|    0.823951|    0.012021|
|         615|   -5.338918|   -7.954294|    0.823950|    0.012021|
|         616|   -5.344758|   -7.951288|    0.823948|    0.012021|
|         617|   -5.354405|   -7.947034|    0.823946|    0.012020|
|         618|   -5.369550|   -7.941660|    0.823945|    0.012020|
|         619|   -5.388915|   -7.935356|    0.823944|    0.012020|
|         620|   -5.409798|   -7.928350|    0.823942|    0.012020|
|         621|   -5.429890|   -7.920875|    0.823941|    0.012020|
|         622|   -5.448463|   -7.913143|    0.823940|    0.012020|
|         623|   -5.466247|   -7.905344|    0.823939|    0.012020|
|         624|   -5.484340|   -7.897640|    0.823938|    0.012020|
|         625|   -5.503198|   -7.890174|    0.823937|    0.012020|
|         626|   -5.522328|   -7.883070|    0.823936|    0.012019|
|         627|   -5.540591|   -7.876429|    0.823935|    0.012019|
|         628|   -5.556735|   -7.870337|    0.823935|    0.012019|
|         629|   -5.569837|   -7.864857|    0.823934|    0.012019|
|         630|   -5.579528|   -7.860032|    0.823934|    0.012019|
|         631|   -5.586024|   -7.855888|    0.823934|    0.012019|
|         632|   -5.590050|   -7.852431|    0.823934|    0.012019|
|         633|   -5.592664|   -7.849650|    0.823933|    0.012019|
|         634|   -5.595023|   -7.847521|    0.823933|    0.012019|
|         635|   -5.598132|   -7.846003|    0.823933|    0.012019|
|         636|   -5.602673|   -7.845048|    0.823934|    0.012018|
|         637|   -5.608921|   -7.844594|    0.823934|    0.012018|
|         638|   -5.616754|   -7.844578|    0.823934|    0.012018|
|         639|   -5.625696|   -7.844931|    0.823934|    0.012018|
|         640|   -5.635010|   -7.845583|    0.823935|    0.012018|
|         641|   -5.643820|   -7.846466|    0.823935|    0.012018|
|         642|   -5.651303|   -7.847514|    0.823935|    0.012018|
|         643|   -5.656891|   -7.848663|    0.823936|    0.012018|
|         644|   -5.660443|   -7.849858|    0.823936|    0.012018|
|         645|   -5.662269|   -7.851049|    0.823937|    0.012018|
|         646|   -5.663020|   -7.852196|    0.823938|    0.012018|
|         647|   -5.663483|   -7.853263|    0.823938|    0.012018|
|         648|   -5.664370|   -7.854224|    0.823939|    0.012018|
|         649|   -5.666187|   -7.855061|    0.823939|    0.012018|
|         650|   -5.669180|   -7.855762|    0.823940|    0.012018|
|         651|   -5.673348|   -7.856319|    0.823941|    0.012018|
|         652|   -5.678500|   -7.856733|    0.823941|    0.012018|
|         653|   -5.684339|   -7.857005|    0.823942|    0.012018|
|         654|   -5.690541|   -7.857142|    0.823943|    0.012018|
|         655|   -5.696830|   -7.857149|    0.823943|    0.012018|
|         656|   -5.703027|   -7.857037|    0.823944|    0.012018|
|         657|   -5.709069|   -7.856816|    0.823945|    0.012018|
|         658|   -5.714998|   -7.856496|    0.823946|    0.012018|
|         659|   -5.720926|   -7.856088|    0.823947|    0.012018|
|         660|   -5.727000|   -7.855602|    0.823947|    0.012018|
|         661|   -5.733355|   -7.855049|    0.823948|    0.012018|
|         662|   -5.740098|   -7.854443|    0.823949|    0.012018|
|         663|   -5.747290|   -7.853798|    0.823950|    0.012018|
|         664|   -5.754949|   -7.853130|    0.823951|    0.012018|
|         665|   -5.763064|   -7.852459|    0.823951|    0.012018|
|         666|   -5.771600|   -7.851806|    0.823952|    0.012018|
|         667|   -5.780517|   -7.851195|    0.823953|    0.012018|
|         668|   -5.789775|   -7.850651|    0.823954|    0.012018|
|         669|   -5.799341|   -7.850202|    0.823955|    0.012018|
|         670|   -5.809190|   -7.849876|    0.823956|    0.012018|
|         671|   -5.819298|   -7.849697|    0.823957|    0.012018|
|         672|   -5.829641|   -7.849693|    0.823957|    0.012018|
|         673|   -5.840191|   -7.849884|    0.823958|    0.012018|
|         674|   -5.850909|   -7.850289|    0.823959|    0.012018|
|         675|   -5.861747|   -7.850920|    0.823960|    0.012018|
|         676|   -5.872646|   -7.851787|    0.823960|    0.012018|
|         677|   -5.883537|   -7.852888|    0.823961|    0.012018|
|         678|   -5.894345|   -7.854218|    0.823962|    0.012018|
|         679|   -5.904990|   -7.855763|    0.823962|    0.012018|
|         680|   -5.915392|   -7.857501|    0.823963|    0.012018|
|         681|   -5.925473|   -7.859404|    0.823964|    0.012018|
|         682|   -5.935157|   -7.861437|    0.823964|    0.012018|
|         683|   -5.944381|   -7.863561|    0.823964|    0.012018|
|         684|   -5.953087|   -7.865732|    0.823965|    0.012018|
|         685|   -5.961231|   -7.867906|    0.823965|    0.012018|
|         686|   -5.968782|   -7.870035|    0.823965|    0.012018|
|         687|   -5.975725|   -7.872079|    0.823966|    0.012018|
|         688|   -5.982058|   -7.873998|    0.823966|    0.012018|
|         689|   -5.987792|   -7.875763|    0.823966|    0.012019|
|         690|   -5.992954|   -7.877350|    0.823966|    0.012019|
|         691|   -5.997578|   -7.878748|    0.823966|    0.012019|
|         692|   -6.001709|   -7.879956|    0.823965|    0.012019|
|         693|   -6.005397|   -7.880985|    0.823965|    0.012019|
|         694|   -6.008694|   -7.881854|    0.823965|    0.012019|
|         695|   -6.011655|   -7.882596|    0.823965|    0.012019|
|         696|   -6.014335|   -7.883247|    0.823964|    0.012019|
|         697|   -6.016784|   -7.883853|    0.823964|    0.012019|
|         698|   -6.019052|   -7.884460|    0.823963|    0.012019|
|         699|   -6.021184|   -7.885117|    0.823963|    0.012019|
|         700|   -6.023222|   -7.885870|    0.823962|    0.012019|
|         701|   -6.025205|   -7.886763|    0.823961|    0.012021|
+-----------------------------------------------------------------------+
|Fixed CL Mode                           |Value                         |
+-----------------------------------------------------------------------+
|Current CL                              |0.823961                      |
|Target CL                               |0.824                         |
|Previous AOA                            |2.78758                       |
|Changed AoA by                          |0.000189215                   |
+-----------------------------------------------------------------------+
+----------------------------------------------------------------+
|  Inner_Iter|    rms[Rho]|     rms[nu]|          CL|          CD|
+----------------------------------------------------------------+
|         702|   -3.916414|   -7.791218|    0.823961|    0.012021|
|         703|   -4.300326|   -7.835539|    0.823960|    0.012021|
|         704|   -4.542308|   -7.851185|    0.823959|    0.012021|
|         705|   -4.619792|   -7.860849|    0.823959|    0.012021|
|         706|   -4.673017|   -7.868515|    0.823958|    0.012021|
|         707|   -4.742529|   -7.875149|    0.823957|    0.012021|
|         708|   -4.828841|   -7.881065|    0.823956|    0.012021|
|         709|   -4.919698|   -7.886450|    0.823956|    0.012021|
|         710|   -4.999156|   -7.891405|    0.823955|    0.012021|
|         711|   -5.058751|   -7.895938|    0.823954|    0.012021|
|         712|   -5.099358|   -7.900047|    0.823953|    0.012021|
|         713|   -5.123970|   -7.903817|    0.823952|    0.012021|
|         714|   -5.135853|   -7.907388|    0.823952|    0.012021|
|         715|   -5.140810|   -7.910849|    0.823951|    0.012021|
|         716|   -5.145839|   -7.914204|    0.823950|    0.012021|
|         717|   -5.155814|   -7.917407|    0.823949|    0.012021|
|         718|   -5.172057|   -7.920422|    0.823949|    0.012021|
|         719|   -5.192895|   -7.923255|    0.823948|    0.012021|
|         720|   -5.215204|   -7.925936|    0.823948|    0.012021|
|         721|   -5.236294|   -7.928495|    0.823947|    0.012020|
|         722|   -5.255269|   -7.930939|    0.823946|    0.012020|
|         723|   -5.272969|   -7.933246|    0.823946|    0.012020|
|         724|   -5.290788|   -7.935382|    0.823946|    0.012020|
|         725|   -5.309532|   -7.937319|    0.823945|    0.012020|
|         726|   -5.329024|   -7.939044|    0.823945|    0.012020|
|         727|   -5.348356|   -7.940563|    0.823944|    0.012020|
|         728|   -5.366367|   -7.941903|    0.823944|    0.012020|
|         729|   -5.382046|   -7.943099|    0.823944|    0.012020|
|         730|   -5.394758|   -7.944190|    0.823944|    0.012020|
|         731|   -5.404369|   -7.945217|    0.823944|    0.012019|
|         732|   -5.411301|   -7.946218|    0.823943|    0.012019|
|         733|   -5.416466|   -7.947222|    0.823943|    0.012019|
|         734|   -5.421058|   -7.948242|    0.823943|    0.012019|
|         735|   -5.426267|   -7.949286|    0.823943|    0.012019|
|         736|   -5.433022|   -7.950349|    0.823943|    0.012019|
|         737|   -5.441857|   -7.951415|    0.823944|    0.012019|
|         738|   -5.452863|   -7.952465|    0.823944|    0.012019|
|         739|   -5.465700|   -7.953476|    0.823944|    0.012019|
|         740|   -5.479644|   -7.954422|    0.823944|    0.012019|
|         741|   -5.493689|   -7.955279|    0.823944|    0.012019|
|         742|   -5.506732|   -7.956032|    0.823945|    0.012019|
|         743|   -5.517845|   -7.956669|    0.823945|    0.012018|
|         744|   -5.526553|   -7.957183|    0.823946|    0.012018|
|         745|   -5.532989|   -7.957574|    0.823946|    0.012018|
|         746|   -5.537832|   -7.957842|    0.823946|    0.012018|
|         747|   -5.542062|   -7.957985|    0.823947|    0.012018|
|         748|   -5.546660|   -7.958001|    0.823948|    0.012018|
|         749|   -5.552390|   -7.957899|    0.823948|    0.012018|
|         750|   -5.559677|   -7.957683|    0.823949|    0.012018|
|         751|   -5.568599|   -7.957358|    0.823950|    0.012018|
|         752|   -5.578942|   -7.956931|    0.823950|    0.012018|
|         753|   -5.590287|   -7.956406|    0.823951|    0.012018|
|         754|   -5.602125|   -7.955784|    0.823952|    0.012018|
|         755|   -5.613972|   -7.955079|    0.823953|    0.012018|
|         756|   -5.625464|   -7.954307|    0.823954|    0.012018|
|         757|   -5.636420|   -7.953489|    0.823955|    0.012018|
|         758|   -5.646848|   -7.952648|    0.823956|    0.012018|
|         759|   -5.656910|   -7.951810|    0.823957|    0.012018|
|         760|   -5.666851|   -7.951008|    0.823958|    0.012018|
|         761|   -5.676932|   -7.950276|    0.823960|    0.012018|
|         762|   -5.687376|   -7.949654|    0.823961|    0.012018|
|         763|   -5.698333|   -7.949183|    0.823962|    0.012018|
|         764|   -5.709881|   -7.948908|    0.823964|    0.012018|
|         765|   -5.722036|   -7.948876|    0.823965|    0.012018|
|         766|   -5.734772|   -7.949129|    0.823966|    0.012018|
|         767|   -5.748044|   -7.949710|    0.823968|    0.012018|
|         768|   -5.761811|   -7.950653|    0.823969|    0.012018|
|         769|   -5.776040|   -7.951990|    0.823971|    0.012018|
|         770|   -5.790715|   -7.953738|    0.823972|    0.012019|
|         771|   -5.805828|   -7.955908|    0.823974|    0.012019|
|         772|   -5.821373|   -7.958497|    0.823975|    0.012019|
|         773|   -5.837335|   -7.961487|    0.823976|    0.012019|
|         774|   -5.853684|   -7.964845|    0.823978|    0.012019|
|         775|   -5.870365|   -7.968525|    0.823979|    0.012019|
|         776|   -5.887297|   -7.972464|    0.823980|    0.012019|
|         777|   -5.904373|   -7.976584|    0.823981|    0.012019|
|         778|   -5.921461|   -7.980796|    0.823982|    0.012019|
|         779|   -5.938409|   -7.984998|    0.823983|    0.012019|
|         780|   -5.955050|   -7.989083|    0.823984|    0.012019|
|         781|   -5.971209|   -7.992942|    0.823985|    0.012019|
|         782|   -5.986705|   -7.996471|    0.823985|    0.012019|
|         783|   -6.001366|   -7.999573|    0.823986|    0.012019|
|         784|   -6.015031|   -8.002172|    0.823986|    0.012019|
|         785|   -6.027565|   -8.004210|    0.823986|    0.012019|
|         786|   -6.038865|   -8.005660|    0.823987|    0.012019|
|         787|   -6.048870|   -8.006520|    0.823987|    0.012019|
|         788|   -6.057563|   -8.006822|    0.823987|    0.012019|
|         789|   -6.064973|   -8.006623|    0.823986|    0.012019|
|         790|   -6.071172|   -8.006004|    0.823986|    0.012019|
|         791|   -6.076268|   -8.005066|    0.823986|    0.012019|
|         792|   -6.080396|   -8.003923|    0.823985|    0.012019|
|         793|   -6.083705|   -8.002693|    0.823985|    0.012020|
|         794|   -6.086351|   -8.001496|    0.823984|    0.012020|
|         795|   -6.088484|   -8.000446|    0.823984|    0.012020|
|         796|   -6.090246|   -7.999648|    0.823983|    0.012020|
|         797|   -6.091762|   -7.999195|    0.823982|    0.012020|
|         798|   -6.093142|   -7.999163|    0.823981|    0.012020|
|         799|   -6.094476|   -7.999614|    0.823980|    0.012020|
|         800|   -6.095837|   -8.000591|    0.823979|    0.012020|
|         801|   -6.097283|   -8.002120|    0.823978|    0.012021|
+-----------------------------------------------------------------------+
|Fixed CL Mode                           |Value                         |
+-----------------------------------------------------------------------+
|Current CL                              |0.823978                      |
|Target CL                               |0.824                         |
|Previous AOA                            |2.78777                       |
|Changed AoA by                          |0.000103855                   |
+-----------------------------------------------------------------------+
+----------------------------------------------------------------+
|  Inner_Iter|    rms[Rho]|     rms[nu]|          CL|          CD|
+----------------------------------------------------------------+
|         802|   -4.176904|   -7.948738|    0.823977|    0.012021|
|         803|   -4.560207|   -7.977068|    0.823976|    0.012021|
|         804|   -4.800313|   -7.988266|    0.823975|    0.012021|
|         805|   -4.876697|   -7.996333|    0.823974|    0.012021|
|         806|   -4.929436|   -8.003528|    0.823973|    0.012021|
|         807|   -4.998407|   -8.010337|    0.823972|    0.012021|
|         808|   -5.083975|   -8.016868|    0.823970|    0.012021|
|         809|   -5.174105|   -8.023159|    0.823969|    0.012021|
|         810|   -5.253393|   -8.029196|    0.823968|    0.012021|
|         811|   -5.313758|   -8.034900|    0.823967|    0.012021|
|         812|   -5.355913|   -8.040190|    0.823966|    0.012021|
|         813|   -5.382372|   -8.045037|    0.823965|    0.012021|
|         814|   -5.395890|   -8.049457|    0.823964|    0.012021|
|         815|   -5.401968|   -8.053450|    0.823963|    0.012021|
|         816|   -5.407604|   -8.056985|    0.823962|    0.012021|
|         817|   -5.417843|   -8.060021|    0.823961|    0.012021|
|         818|   -5.434195|   -8.062538|    0.823960|    0.012021|
|         819|   -5.455152|   -8.064560|    0.823959|    0.012021|
|         820|   -5.477740|   -8.066144|    0.823959|    0.012020|
|         821|   -5.499392|   -8.067360|    0.823958|    0.012020|
|         822|   -5.519276|   -8.068267|    0.823957|    0.012020|
|         823|   -5.538226|   -8.068924|    0.823957|    0.012020|
|         824|   -5.557577|   -8.069377|    0.823956|    0.012020|
|         825|   -5.578027|   -8.069683|    0.823956|    0.012020|
|         826|   -5.599242|   -8.069904|    0.823955|    0.012020|
|         827|   -5.620110|   -8.070113|    0.823955|    0.012020|
|         828|   -5.639260|   -8.070383|    0.823955|    0.012020|
|         829|   -5.655523|   -8.070789|    0.823955|    0.012020|
|         830|   -5.668223|   -8.071399|    0.823954|    0.012020|
|         831|   -5.677314|   -8.072269|    0.823954|    0.012020|
|         832|   -5.683401|   -8.073443|    0.823954|    0.012020|
|         833|   -5.687605|   -8.074952|    0.823954|    0.012020|
|         834|   -5.691286|   -8.076808|    0.823954|    0.012020|
|         835|   -5.695720|   -8.079008|    0.823955|    0.012020|
|         836|   -5.701850|   -8.081535|    0.823955|    0.012020|
|         837|   -5.710159|   -8.084358|    0.823955|    0.012020|
|         838|   -5.720648|   -8.087444|    0.823955|    0.012020|
|         839|   -5.732870|   -8.090748|    0.823955|    0.012019|
|         840|   -5.745991|   -8.094225|    0.823956|    0.012019|
|         841|   -5.758912|   -8.097830|    0.823956|    0.012019|
|         842|   -5.770482|   -8.101521|    0.823957|    0.012019|
|         843|   -5.779793|   -8.105259|    0.823957|    0.012019|
|         844|   -5.786454|   -8.109010|    0.823957|    0.012019|
|         845|   -5.790717|   -8.112748|    0.823958|    0.012019|
|         846|   -5.793368|   -8.116449|    0.823958|    0.012019|
|         847|   -5.795448|   -8.120094|    0.823959|    0.012019|
|         848|   -5.797949|   -8.123669|    0.823959|    0.012019|
|         849|   -5.801605|   -8.127159|    0.823960|    0.012019|
|         850|   -5.806798|   -8.130555|    0.823960|    0.012019|
|         851|   -5.813568|   -8.133846|    0.823961|    0.012019|
|         852|   -5.821678|   -8.137021|    0.823962|    0.012019|
|         853|   -5.830718|   -8.140067|    0.823962|    0.012019|
|         854|   -5.840211|   -8.142968|    0.823963|    0.012019|
|         855|   -5.849729|   -8.145706|    0.823963|    0.012019|
|         856|   -5.858971|   -8.148267|    0.823964|    0.012019|
|         857|   -5.867810|   -8.150634|    0.823965|    0.012019|
|         858|   -5.876290|   -8.152789|    0.823965|    0.012019|
|         859|   -5.884582|   -8.154716|    0.823966|    0.012019|
|         860|   -5.892923|   -8.156397|    0.823967|    0.012019|
|         861|   -5.901551|   -8.157824|    0.823968|    0.012019|
|         862|   -5.910664|   -8.158990|    0.823968|    0.012019|
|         863|   -5.920395|   -8.159899|    0.823969|    0.012019|
|         864|   -5.930812|   -8.160567|    0.823970|    0.012019|
|         865|   -5.941928|   -8.161016|    0.823971|    0.012018|
|         866|   -5.953726|   -8.161280|    0.823971|    0.012018|
|         867|   -5.966174|   -8.161404|    0.823972|    0.012018|
|         868|   -5.979242|   -8.161437|    0.823973|    0.012018|
|         869|   -5.992910|   -8.161438|    0.823974|    0.012018|
|         870|   -6.007173|   -8.161467|    0.823975|    0.012018|
|         871|   -6.022030|   -8.161585|    0.823975|    0.012018|
|         872|   -6.037485|   -8.161850|    0.823976|    0.012018|
|         873|   -6.053529|   -8.162314|    0.823977|    0.012018|
|         874|   -6.070141|   -8.163022|    0.823978|    0.012018|
|         875|   -6.087274|   -8.164009|    0.823978|    0.012018|
|         876|   -6.104854|   -8.165296|    0.823979|    0.012018|
|         877|   -6.122782|   -8.166890|    0.823980|    0.012018|
|         878|   -6.140926|   -8.168783|    0.823980|    0.012018|
|         879|   -6.159127|   -8.170953|    0.823981|    0.012018|
|         880|   -6.177200|   -8.173361|    0.823981|    0.012018|
|         881|   -6.194934|   -8.175952|    0.823982|    0.012018|
|         882|   -6.212103|   -8.178660|    0.823982|    0.012018|
|         883|   -6.228466|   -8.181407|    0.823982|    0.012018|
|         884|   -6.243783|   -8.184109|    0.823983|    0.012018|
|         885|   -6.257825|   -8.186679|    0.823983|    0.012018|
|         886|   -6.270391|   -8.189031|    0.823983|    0.012018|
|         887|   -6.281323|   -8.191087|    0.823983|    0.012018|
|         888|   -6.290520|   -8.192782|    0.823984|    0.012018|
|         889|   -6.297947|   -8.194068|    0.823984|    0.012018|
|         890|   -6.303638|   -8.194920|    0.823984|    0.012018|
|         891|   -6.307689|   -8.195335|    0.823984|    0.012018|
|         892|   -6.310248|   -8.195339|    0.823983|    0.012018|
|         893|   -6.311503|   -8.194977|    0.823983|    0.012018|
|         894|   -6.311662|   -8.194318|    0.823983|    0.012018|
|         895|   -6.310941|   -8.193444|    0.823983|    0.012018|
|         896|   -6.309550|   -8.192450|    0.823983|    0.012018|
|         897|   -6.307684|   -8.191438|    0.823982|    0.012018|
|         898|   -6.305519|   -8.190506|    0.823982|    0.012018|
|         899|   -6.303209|   -8.189751|    0.823981|    0.012018|
|         900|   -6.300885|   -8.189259|    0.823981|    0.012018|
|         901|   -6.298658|   -8.189105|    0.823981|    0.012020|
+-----------------------------------------------------------------------+
|Fixed CL Mode                           |Value                         |
+-----------------------------------------------------------------------+
|Current CL                              |0.823981                      |
|Target CL                               |0.824                         |
|Previous AOA                            |2.78787                       |
[...]
|        5298|   -6.035618|   -7.981505|    0.824236|    0.012021|
|        5299|   -6.042287|   -7.985312|    0.824237|    0.012021|
|        5300|   -6.048567|   -7.989198|    0.824237|    0.012021|
|        5301|   -6.054419|   -7.993186|    0.824237|    0.012021|
|        5302|   -6.059815|   -7.997291|    0.824237|    0.012021|
|        5303|   -6.064740|   -8.001524|    0.824237|    0.012021|
|        5304|   -6.069189|   -8.005898|    0.824237|    0.012021|
|        5305|   -6.073170|   -8.010416|    0.824237|    0.012021|
|        5306|   -6.076702|   -8.015083|    0.824237|    0.012021|
|        5307|   -6.079815|   -8.019899|    0.824238|    0.012021|
|        5308|   -6.082547|   -8.024864|    0.824238|    0.012021|
|        5309|   -6.084945|   -8.029977|    0.824238|    0.012021|
|        5310|   -6.087060|   -8.035238|    0.824238|    0.012021|
|        5311|   -6.088947|   -8.040644|    0.824238|    0.012021|
|        5312|   -6.090664|   -8.046194|    0.824238|    0.012021|
|        5313|   -6.092267|   -8.051888|    0.824238|    0.012021|
|        5314|   -6.093809|   -8.057725|    0.824238|    0.012021|
|        5315|   -6.095343|   -8.063706|    0.824239|    0.012021|
|        5316|   -6.096918|   -8.069832|    0.824239|    0.012021|
|        5317|   -6.098576|   -8.076104|    0.824239|    0.012021|
|        5318|   -6.100357|   -8.082525|    0.824239|    0.012021|
|        5319|   -6.102292|   -8.089094|    0.824239|    0.012021|
|        5320|   -6.104406|   -8.095814|    0.824239|    0.012021|
|        5321|   -6.106721|   -8.102684|    0.824239|    0.012021|
|        5322|   -6.109245|   -8.109702|    0.824240|    0.012021|
|        5323|   -6.111986|   -8.116866|    0.824240|    0.012022|
|        5324|   -6.114945|   -8.124171|    0.824240|    0.012022|
|        5325|   -6.118116|   -8.131611|    0.824240|    0.012022|
|        5326|   -6.121485|   -8.139177|    0.824240|    0.012022|
|        5327|   -6.125032|   -8.146859|    0.824240|    0.012022|
|        5328|   -6.128733|   -8.154645|    0.824241|    0.012022|
|        5329|   -6.132559|   -8.162519|    0.824241|    0.012022|
|        5330|   -6.136476|   -8.170466|    0.824241|    0.012022|
|        5331|   -6.140448|   -8.178465|    0.824241|    0.012022|
|        5332|   -6.144436|   -8.186493|    0.824241|    0.012022|
|        5333|   -6.148399|   -8.194532|    0.824241|    0.012022|
|        5334|   -6.152295|   -8.202564|    0.824242|    0.012022|
|        5335|   -6.156085|   -8.210572|    0.824242|    0.012023|
|        5336|   -6.159733|   -8.218538|    0.824242|    0.012023|
|        5337|   -6.163204|   -8.226445|    0.824242|    0.012023|
|        5338|   -6.166472|   -8.234273|    0.824242|    0.012023|
|        5339|   -6.169514|   -8.242009|    0.824242|    0.012023|
|        5340|   -6.172317|   -8.249640|    0.824242|    0.012023|
|        5341|   -6.174873|   -8.257157|    0.824243|    0.012023|
|        5342|   -6.177184|   -8.264553|    0.824243|    0.012023|
|        5343|   -6.179259|   -8.271824|    0.824243|    0.012023|
|        5344|   -6.181115|   -8.278969|    0.824243|    0.012023|
|        5345|   -6.182776|   -8.285988|    0.824243|    0.012023|
|        5346|   -6.184271|   -8.292886|    0.824243|    0.012023|
|        5347|   -6.185636|   -8.299668|    0.824243|    0.012023|
|        5348|   -6.186908|   -8.306339|    0.824244|    0.012024|
|        5349|   -6.188130|   -8.312909|    0.824244|    0.012024|
|        5350|   -6.189343|   -8.319384|    0.824244|    0.012024|
|        5351|   -6.190589|   -8.325776|    0.824244|    0.012024|
|        5352|   -6.191912|   -8.332091|    0.824244|    0.012024|
|        5353|   -6.193352|   -8.338339|    0.824244|    0.012024|
|        5354|   -6.194945|   -8.344528|    0.824244|    0.012024|
|        5355|   -6.196724|   -8.350661|    0.824244|    0.012024|
|        5356|   -6.198720|   -8.356745|    0.824244|    0.012024|
|        5357|   -6.200960|   -8.362778|    0.824244|    0.012024|
|        5358|   -6.203465|   -8.368762|    0.824244|    0.012024|
|        5359|   -6.206254|   -8.374689|    0.824244|    0.012024|
|        5360|   -6.209338|   -8.380555|    0.824244|    0.012024|
|        5361|   -6.212726|   -8.386349|    0.824244|    0.012024|
|        5362|   -6.216422|   -8.392060|    0.824245|    0.012024|
|        5363|   -6.220423|   -8.397673|    0.824245|    0.012024|
|        5364|   -6.224722|   -8.403172|    0.824245|    0.012024|
|        5365|   -6.229309|   -8.408541|    0.824245|    0.012024|
|        5366|   -6.234166|   -8.413760|    0.824245|    0.012024|
|        5367|   -6.239273|   -8.418809|    0.824245|    0.012024|
|        5368|   -6.244604|   -8.423666|    0.824245|    0.012024|
|        5369|   -6.250128|   -8.428308|    0.824245|    0.012024|
|        5370|   -6.255810|   -8.432715|    0.824245|    0.012024|
|        5371|   -6.261611|   -8.436862|    0.824245|    0.012024|
|        5372|   -6.267491|   -8.440727|    0.824245|    0.012024|
|        5373|   -6.273403|   -8.444290|    0.824245|    0.012023|
|        5374|   -6.279301|   -8.447530|    0.824245|    0.012023|
|        5375|   -6.285136|   -8.450429|    0.824245|    0.012023|
|        5376|   -6.290861|   -8.452971|    0.824245|    0.012023|
|        5377|   -6.296427|   -8.455144|    0.824245|    0.012023|
|        5378|   -6.301789|   -8.456936|    0.824245|    0.012023|
|        5379|   -6.306903|   -8.458339|    0.824245|    0.012023|
|        5380|   -6.311732|   -8.459349|    0.824245|    0.012023|
|        5381|   -6.316242|   -8.459962|    0.824245|    0.012023|
|        5382|   -6.320405|   -8.460180|    0.824245|    0.012023|
|        5383|   -6.324202|   -8.460003|    0.824245|    0.012023|
|        5384|   -6.327619|   -8.459438|    0.824245|    0.012023|
|        5385|   -6.330651|   -8.458489|    0.824245|    0.012023|
|        5386|   -6.333297|   -8.457166|    0.824245|    0.012022|
|        5387|   -6.335567|   -8.455478|    0.824246|    0.012022|
|        5388|   -6.337473|   -8.453436|    0.824246|    0.012022|
|        5389|   -6.339034|   -8.451052|    0.824246|    0.012022|
|        5390|   -6.340272|   -8.448339|    0.824246|    0.012022|
|        5391|   -6.341214|   -8.445309|    0.824246|    0.012022|
|        5392|   -6.341887|   -8.441979|    0.824246|    0.012022|
|        5393|   -6.342320|   -8.438362|    0.824246|    0.012022|
|        5394|   -6.342539|   -8.434475|    0.824247|    0.012022|
|        5395|   -6.342570|   -8.430335|    0.824247|    0.012022|
|        5396|   -6.342439|   -8.425962|    0.824247|    0.012022|
|        5397|   -6.342169|   -8.421373|    0.824247|    0.012021|
|        5398|   -6.341782|   -8.416589|    0.824247|    0.012021|
|        5399|   -6.341296|   -8.411631|    0.824248|    0.012021|
|        5400|   -6.340726|   -8.406519|    0.824248|    0.012021|
|        5401|   -6.340087|   -8.401278|    0.824248|    0.012021|
|        5402|   -6.339389|   -8.395931|    0.824248|    0.012021|
|        5403|   -6.338642|   -8.390501|    0.824249|    0.012021|
|        5404|   -6.337853|   -8.385016|    0.824249|    0.012021|
|        5405|   -6.337027|   -8.379499|    0.824249|    0.012021|
|        5406|   -6.336171|   -8.373977|    0.824249|    0.012021|
|        5407|   -6.335287|   -8.368473|    0.824250|    0.012021|
|        5408|   -6.334379|   -8.363013|    0.824250|    0.012020|
|        5409|   -6.333448|   -8.357619|    0.824250|    0.012020|
|        5410|   -6.332499|   -8.352314|    0.824250|    0.012020|
|        5411|   -6.331533|   -8.347117|    0.824251|    0.012020|
|        5412|   -6.330552|   -8.342047|    0.824251|    0.012020|
|        5413|   -6.329560|   -8.337122|    0.824251|    0.012020|
|        5414|   -6.328560|   -8.332354|    0.824251|    0.012020|
|        5415|   -6.327555|   -8.327759|    0.824252|    0.012020|
|        5416|   -6.326550|   -8.323345|    0.824252|    0.012020|
|        5417|   -6.325550|   -8.319122|    0.824252|    0.012020|
|        5418|   -6.324561|   -8.315096|    0.824252|    0.012020|
|        5419|   -6.323588|   -8.311272|    0.824253|    0.012020|
|        5420|   -6.322638|   -8.307653|    0.824253|    0.012020|
|        5421|   -6.321720|   -8.304239|    0.824253|    0.012020|
|        5422|   -6.320840|   -8.301029|    0.824253|    0.012020|
|        5423|   -6.320010|   -8.298021|    0.824254|    0.012020|
|        5424|   -6.319237|   -8.295211|    0.824254|    0.012020|
|        5425|   -6.318533|   -8.292594|    0.824254|    0.012020|
|        5426|   -6.317909|   -8.290163|    0.824254|    0.012020|
|        5427|   -6.317377|   -8.287911|    0.824254|    0.012020|
|        5428|   -6.316949|   -8.285833|    0.824255|    0.012020|
|        5429|   -6.316637|   -8.283919|    0.824255|    0.012020|
|        5430|   -6.316456|   -8.282164|    0.824255|    0.012020|
|        5431|   -6.316420|   -8.280557|    0.824255|    0.012020|
|        5432|   -6.316541|   -8.279093|    0.824255|    0.012020|
|        5433|   -6.316834|   -8.277762|    0.824255|    0.012020|
|        5434|   -6.317312|   -8.276557|    0.824256|    0.012020|
|        5435|   -6.317989|   -8.275472|    0.824256|    0.012020|
|        5436|   -6.318877|   -8.274498|    0.824256|    0.012020|
|        5437|   -6.319988|   -8.273628|    0.824256|    0.012020|
|        5438|   -6.321334|   -8.272858|    0.824256|    0.012020|
|        5439|   -6.322923|   -8.272181|    0.824256|    0.012020|
|        5440|   -6.324764|   -8.271591|    0.824256|    0.012020|
|        5441|   -6.326864|   -8.271085|    0.824257|    0.012020|
|        5442|   -6.329227|   -8.270657|    0.824257|    0.012020|
|        5443|   -6.331855|   -8.270303|    0.824257|    0.012020|
|        5444|   -6.334748|   -8.270020|    0.824257|    0.012020|
|        5445|   -6.337905|   -8.269802|    0.824257|    0.012020|
|        5446|   -6.341319|   -8.269648|    0.824257|    0.012020|
|        5447|   -6.344983|   -8.269554|    0.824257|    0.012021|
|        5448|   -6.348885|   -8.269516|    0.824257|    0.012021|
|        5449|   -6.353009|   -8.269531|    0.824257|    0.012021|
|        5450|   -6.357340|   -8.269598|    0.824257|    0.012021|
|        5451|   -6.361854|   -8.269713|    0.824258|    0.012021|
|        5452|   -6.366526|   -8.269873|    0.824258|    0.012021|
|        5453|   -6.371330|   -8.270076|    0.824258|    0.012021|
|        5454|   -6.376232|   -8.270320|    0.824258|    0.012021|
|        5455|   -6.381198|   -8.270602|    0.824258|    0.012021|
|        5456|   -6.386191|   -8.270920|    0.824258|    0.012021|
|        5457|   -6.391171|   -8.271271|    0.824258|    0.012021|
|        5458|   -6.396096|   -8.271653|    0.824258|    0.012021|
|        5459|   -6.400923|   -8.272065|    0.824258|    0.012021|
|        5460|   -6.405609|   -8.272504|    0.824258|    0.012022|
|        5461|   -6.410112|   -8.272968|    0.824258|    0.012022|
|        5462|   -6.414389|   -8.273456|    0.824258|    0.012022|
|        5463|   -6.418403|   -8.273965|    0.824258|    0.012022|
|        5464|   -6.422117|   -8.274494|    0.824258|    0.012022|
|        5465|   -6.425500|   -8.275041|    0.824258|    0.012022|
|        5466|   -6.428527|   -8.275605|    0.824258|    0.012022|
|        5467|   -6.431178|   -8.276183|    0.824258|    0.012022|
|        5468|   -6.433439|   -8.276774|    0.824258|    0.012022|
|        5469|   -6.435304|   -8.277376|    0.824258|    0.012022|
|        5470|   -6.436774|   -8.277987|    0.824258|    0.012022|
|        5471|   -6.437857|   -8.278606|    0.824258|    0.012022|
|        5472|   -6.438566|   -8.279231|    0.824258|    0.012022|
|        5473|   -6.438923|   -8.279860|    0.824258|    0.012022|
|        5474|   -6.438953|   -8.280491|    0.824258|    0.012023|
|        5475|   -6.438686|   -8.281123|    0.824258|    0.012023|
|        5476|   -6.438155|   -8.281753|    0.824258|    0.012023|
|        5477|   -6.437397|   -8.282379|    0.824258|    0.012023|
|        5478|   -6.436450|   -8.282999|    0.824257|    0.012023|
|        5479|   -6.435351|   -8.283612|    0.824257|    0.012023|
|        5480|   -6.434140|   -8.284215|    0.824257|    0.012023|
|        5481|   -6.432853|   -8.284806|    0.824257|    0.012023|
|        5482|   -6.431529|   -8.285383|    0.824257|    0.012023|
|        5483|   -6.430200|   -8.285945|    0.824257|    0.012023|
|        5484|   -6.428900|   -8.286489|    0.824257|    0.012023|
|        5485|   -6.427659|   -8.287015|    0.824257|    0.012023|
|        5486|   -6.426503|   -8.287519|    0.824257|    0.012023|
|        5487|   -6.425460|   -8.288002|    0.824257|    0.012023|
|        5488|   -6.424549|   -8.288461|    0.824257|    0.012023|
|        5489|   -6.423791|   -8.288897|    0.824257|    0.012023|
|        5490|   -6.423203|   -8.289307|    0.824257|    0.012023|
|        5491|   -6.422800|   -8.289693|    0.824257|    0.012023|
|        5492|   -6.422593|   -8.290053|    0.824257|    0.012023|
|        5493|   -6.422591|   -8.290388|    0.824257|    0.012023|
|        5494|   -6.422804|   -8.290696|    0.824257|    0.012023|
|        5495|   -6.423236|   -8.290979|    0.824257|    0.012023|
|        5496|   -6.423892|   -8.291236|    0.824257|    0.012023|
|        5497|   -6.424773|   -8.291468|    0.824257|    0.012023|
|        5498|   -6.425881|   -8.291675|    0.824257|    0.012023|
|        5499|   -6.427214|   -8.291858|    0.824258|    0.012008|
+-----------------------------------------------------------------------+
|Fixed CL Mode (Finite Difference)       |Value                         |
+-----------------------------------------------------------------------+
|Delta CL / Delta AoA                    |0.257603                      |
|Delta CD / Delta CL                     |0.0184689                     |
|Delta CMz / Delta CL                    |0.0133502                     |
+-----------------------------------------------------------------------+
Writing Flow Meta-Data file: flow.meta

----------------------------- Solver Exit -------------------------------

Maximum number of iterations reached (ITER = 5500) before convergence.
+-----------------------------------------------------------------------+
|      Convergence Field     |     Value    |   Criterion  |  Converged |
+-----------------------------------------------------------------------+
|                    rms[Rho]|      -6.42721|         < -12|          No|
+-----------------------------------------------------------------------+
-------------------------------------------------------------------------

--------------------------- Finalizing Solver ---------------------------
Deleted CNumerics container.
Deleted CIntegration container.
Deleted CSolver container.
Deleted CIteration container.
Deleted CInterface container.
Deleted CGeometry container.
Deleted CFreeFormDefBox class.
Deleted CSurfaceMovement class.
Deleted CVolumetricMovement class.
Deleted CConfig container.
Deleted nInst container.
Deleted COutput class.
-------------------------------------------------------------------------

------------------------- Exit Success (SU2_CFD) ------------------------


-------------------------------------------------------------------------
|    ___ _   _ ___                                                      |
|   / __| | | |_  )   Release 8.0.0 "Harrier"                           |
|   \__ \ |_| |/ /                                                      |
|   |___/\___//___|   Suite (Solution Exporting Code)                   |
|                                                                       |
-------------------------------------------------------------------------
| SU2 Project Website: https://su2code.github.io                        |
|                                                                       |
| The SU2 Project is maintained by the SU2 Foundation                   |
| (http://su2foundation.org)                                            |
-------------------------------------------------------------------------
| Copyright 2012-2023, SU2 Contributors                                 |
|                                                                       |
| SU2 is free software; you can redistribute it and/or                  |
| modify it under the terms of the GNU Lesser General Public            |
| License as published by the Free Software Foundation; either          |
| version 2.1 of the License, or (at your option) any later version.    |
|                                                                       |
| SU2 is distributed in the hope that it will be useful,                |
| but WITHOUT ANY WARRANTY; without even the implied warranty of        |
| MERCHANTABILITY or FITNESS FOR A PARTICULAR PURPOSE. See the GNU      |
| Lesser General Public License for more details.                       |
|                                                                       |
| You should have received a copy of the GNU Lesser General Public      |
| License along with SU2. If not, see <http://www.gnu.org/licenses/>.   |
-------------------------------------------------------------------------

----------------- Physical Case Definition ( Zone 0 ) -------------------
Input mesh file name: mesh_RAE2822_turb_deform.su2

-------------------- Output Information ( Zone 0 ) ----------------------
The tabular file format is CSV (.csv).
Flow variables file name: flow.

------------- Config File Boundary Information ( Zone 0 ) ---------------
+-----------------------------------------------------------------------+
|                        Marker Type|                        Marker Name|
+-----------------------------------------------------------------------+
|                          Far-field|                           FARFIELD|
+-----------------------------------------------------------------------+
|                     Heat flux wall|                            AIRFOIL|
+-----------------------------------------------------------------------+
Two dimensional problem.
13937 grid points before partitioning.
22842 volume elements before partitioning.
2 surface markers.
192 boundary elements in index 0 (Marker = AIRFOIL).
40 boundary elements in index 1 (Marker = FARFIELD).
Executing the partitioning functions.
Building the graph adjacency structure.
Calling ParMETIS... graph partitioning complete (831 edge cuts).
Distributing ParMETIS coloring.
Rebalancing vertices.
Rebalancing volume element connectivity.
Rebalancing markers and surface elements.
14875 vertices including ghost points. 
23674 interior elements including halo cells. 
18780 triangles.
4894 quadrilaterals.
Establishing MPI communication patterns.
Identify vertices.
Storing a mapping from global to local point index.

------------------------- Solution Postprocessing -----------------------
Reading and storing the solution from restart_flow.
Volume output fields: COORDINATES, SOLUTION
  Info: Ignoring the following screen output fields:
  RMS_DENSITY, RMS_NU_TILDE, LIFT, DRAG
Screen output fields: INNER_ITER
  Info: Ignoring the following history output groups:
  RMS_RES, AERO_COEFF
History output group(s): ITER
Warning: No (valid) fields chosen for convergence monitoring. Convergence monitoring inactive.
Warning: No (valid) fields chosen for time convergence monitoring. Time convergence monitoring inactive.
|Paraview                           |flow.vtu                           |
|Paraview surface                   |surface_flow.vtu                   |
|CSV file                           |surface_flow.csv                   |

------------------------- Finalize Solver -------------------------
Deleted CGeometry container.
Deleted CSolver class.
Deleted CConfig container.
Deleted COutput class.

Completed in 0.015067 seconds on 6 cores.

------------------------- Exit Success (SU2_SOL) ------------------------

