
-------------------------------------------------------------------------
|    ___ _   _ ___                                                      |
|   / __| | | |_  )   Release 8.0.0 "Harrier"                           |
|   \__ \ |_| |/ /                                                      |
|   |___/\___//___|   Suite (Computational Fluid Dynamics Code)         |
|                                                                       |
-------------------------------------------------------------------------
| SU2 Project Website: https://su2code.github.io                        |
|                                                                       |
| The SU2 Project is maintained by the SU2 Foundation                   |
| (http://su2foundation.org)                                            |
-------------------------------------------------------------------------
| Copyright 2012-2023, SU2 Contributors                                 |
|                                                                       |
| SU2 is free software; you can redistribute it and/or                  |
| modify it under the terms of the GNU Lesser General Public            |
| License as published by the Free Software Foundation; either          |
| version 2.1 of the License, or (at your option) any later version.    |
|                                                                       |
| SU2 is distributed in the hope that it will be useful,                |
| but WITHOUT ANY WARRANTY; without even the implied warranty of        |
| MERCHANTABILITY or FITNESS FOR A PARTICULAR PURPOSE. See the GNU      |
| Lesser General Public License for more details.                       |
|                                                                       |
| You should have received a copy of the GNU Lesser General Public      |
| License along with SU2. If not, see <http://www.gnu.org/licenses/>.   |
-------------------------------------------------------------------------

Parsing config file for zone 0

----------------- Physical Case Definition ( Zone 0 ) -------------------
Compressible RANS equations.
Turbulence model: Spalart-Allmaras-noft2
Hybrid RANS/LES: No Hybrid RANS/LES
Mach number: 0.734.
Angle of attack (AoA): 2.31 deg, and angle of sideslip (AoS): 0 deg.
Reynolds number: 6.5e+06. Reference length 1.
Fixed CL mode, target value: 0.824.
Reading and writing binary SU2 native restart files.
Read flow solution from: solution_flow.dat.
Dimensional simulation.
The reference area is 1 m^2.
The semi-span will be computed using the max y(3D) value.
The reference length is 1 m.
Reference origin for moment evaluation is (0.25, 0, 0).
Surface(s) where the force coefficients are evaluated: AIRFOIL.

Surface(s) plotted in the output file: AIRFOIL.
Surface(s) affected by the design variables: AIRFOIL.
Input mesh file name: mesh_RAE2822_turb_deform.su2

--------------- Space Numerical Integration ( Zone 0 ) ------------------
Jameson-Schmidt-Turkel scheme (2nd order in space) for the flow inviscid terms.
JST viscous coefficients (2nd & 4th): 0.5, 0.02.
The method includes a grid stretching correction (p = 0.3).
Scalar upwind solver for the turbulence model.
First order integration in space.
Average of gradients with correction (viscous flow terms).
Average of gradients with correction (viscous turbulence terms).
Gradient for viscous and source terms: inverse-distance weighted Least-Squares.

--------------- Time Numerical Integration  ( Zone 0 ) ------------------
Local time stepping (steady state simulation).
Euler implicit method for the flow equations.
FGMRES is used for solving the linear system.
Using a ILU(0) preconditioning.
Convergence criteria of the linear solver: 1e-06.
Max number of linear iterations: 10.
No CFL adaptation.
Courant-Friedrichs-Lewy number:       10
Euler implicit time integration for the turbulence model.

------------------ Convergence Criteria  ( Zone 0 ) ---------------------
Maximum number of solver subiterations: 5500.
Begin convergence monitoring at iteration 10.
Residual minimum value: 1e-12.
Cauchy series min. value: 1e-06.
Number of Cauchy elements: 100.
Begin windowed time average at iteration 0.

-------------------- Output Information ( Zone 0 ) ----------------------
File writing frequency: 
+------------------------------------+
|                     File| Frequency|
+------------------------------------+
|                  RESTART|     10000|
|                 PARAVIEW|     10000|
|         SURFACE_PARAVIEW|     10000|
|              SURFACE_CSV|     10000|
+------------------------------------+
Writing the convergence history file every 1 inner iterations.
Writing the screen convergence history every 1 inner iterations.
The tabular file format is CSV (.csv).
Convergence history file name: history_direct.
Forces breakdown file name: forces_breakdown.dat.
Surface file name: surface_flow.
Volume file name: flow.
Restart file name: restart_flow.dat.

------------- Config File Boundary Information ( Zone 0 ) ---------------
+-----------------------------------------------------------------------+
|                        Marker Type|                        Marker Name|
+-----------------------------------------------------------------------+
|                          Far-field|                           FARFIELD|
+-----------------------------------------------------------------------+
|                     Heat flux wall|                            AIRFOIL|
+-----------------------------------------------------------------------+

-------------------- Output Preprocessing ( Zone 0 ) --------------------

WARNING: SURFACE_PRESSURE_DROP can only be computed for at least 2 surfaces (outlet, inlet, ...)

Screen output fields: INNER_ITER, RMS_DENSITY, RMS_NU_TILDE, LIFT, DRAG
History output group(s): ITER, RMS_RES, AERO_COEFF
Convergence field(s): RMS_DENSITY
Warning: No (valid) fields chosen for time convergence monitoring. Time convergence monitoring inactive.
Volume output fields: COORDINATES, SOLUTION, PRIMITIVE

------------------- Geometry Preprocessing ( Zone 0 ) -------------------
Two dimensional problem.
13937 grid points before partitioning.
22842 volume elements before partitioning.
2 surface markers.
192 boundary elements in index 0 (Marker = AIRFOIL).
40 boundary elements in index 1 (Marker = FARFIELD).
Executing the partitioning functions.
Building the graph adjacency structure.
Calling ParMETIS... graph partitioning complete (831 edge cuts).
Distributing ParMETIS coloring.
Rebalancing vertices.
Rebalancing volume element connectivity.
Rebalancing markers and surface elements.
14875 vertices including ghost points. 
23674 interior elements including halo cells. 
18780 triangles.
4894 quadrilaterals.
Establishing MPI communication patterns.
Setting point connectivity.
Renumbering points (Reverse Cuthill McKee Ordering).
Recomputing point connectivity.
Setting element connectivity.
Checking the numerical grid orientation.
All volume elements are correctly orientend.
All surface elements are correctly orientend.
Identifying edges and vertices.
Setting the control volume structure.
Area of the computational grid: 32209.9.
Searching for the closest normal neighbors to the surfaces.
Storing a mapping from global to local point index.
Compute the surface curvature.
Max K: 205.244. Mean K: 8.31833. Standard deviation K: 26.9733.
Checking for periodicity.
Computing mesh quality statistics for the dual control volumes.
+--------------------------------------------------------------+
|           Mesh Quality Metric|        Minimum|        Maximum|
+--------------------------------------------------------------+
|    Orthogonality Angle (deg.)|        74.4867|        89.9999|
|     CV Face Area Aspect Ratio|        1.00101|           3359|
|           CV Sub-Volume Ratio|        1.00067|        1219.41|
+--------------------------------------------------------------+
Finding max control volume width.
Communicating number of neighbors.
Wetted area = 2.0214 m.
Area projection in the x-plane = 0.127871 m, y-plane = 0.995873 m.
Max. coordinate in the x-direction = 1 m, y-direction = 0.0615737 m.
Min. coordinate in the x-direction = 0 m, y-direction = -0.0625404 m.
Computing wall distances.

-------------------- Solver Preprocessing ( Zone 0 ) --------------------
WARNING: AoA in the solution file (2.76696 deg.) +
         AoA offset in mesh file (0 deg.) = 2.76696 deg.
WARNING: SU2 will use the dCD/dCL provided in the direct solution file: 0.019551.
WARNING: SU2 will use the dCMz/dCL provided in the direct solution file: 0.00702709.
Viscous flow: Computing pressure using the ideal gas law
based on the free-stream temperature and a density computed
from the Reynolds number.
Force coefficients computed using free-stream values.

-- Models:
+------------------------------------------------------------------------------+
|          Viscosity Model|        Conductivity Model|              Fluid Model|
+------------------------------------------------------------------------------+
|               SUTHERLAND|          CONSTANT_PRANDTL|             STANDARD_AIR|
+------------------------------------------------------------------------------+
-- Fluid properties:
+------------------------------------------------------------------------------+
|                  Name|    Dim. value|    Ref. value|      Unit|Non-dim. value|
+------------------------------------------------------------------------------+
|        Ref. Viscosity|     1.716e-05|             1|   N.s/m^2|     1.716e-05|
|      Sutherland Temp.|        273.15|             1|         K|        273.15|
|     Sutherland Const.|         110.4|             1|         K|         110.4|
+------------------------------------------------------------------------------+
|        Prandtl (Lam.)|             -|             -|         -|          0.71|
|       Prandtl (Turb.)|             -|             -|         -|           0.9|
+------------------------------------------------------------------------------+
|          Gas Constant|       287.058|             1|  N.m/kg.K|       287.058|
|      Spec. Heat Ratio|             -|             -|         -|           1.4|
+------------------------------------------------------------------------------+
-- Initial and free-stream conditions:
+------------------------------------------------------------------------------+
|                  Name|    Dim. value|    Ref. value|      Unit|Non-dim. value|
+------------------------------------------------------------------------------+
|       Static Pressure|         38515|             1|        Pa|         38515|
|               Density|      0.465631|             1|    kg/m^3|      0.465631|
|           Temperature|        288.15|             1|         K|        288.15|
|          Total Energy|        237984|             1|   m^2/s^2|        237984|
|            Velocity-X|       249.487|             1|       m/s|       249.487|
|            Velocity-Y|       12.0577|             1|       m/s|       12.0577|
|    Velocity Magnitude|       249.778|             1|       m/s|       249.778|
+------------------------------------------------------------------------------+
|             Viscosity|    1.7893e-05|             1|   N.s/m^2|    1.7893e-05|
|          Conductivity|             -|             1|   W/m^2.K|             -|
|     Turb. Kin. Energy|       233.959|             1|   m^2/s^2|       233.959|
|     Spec. Dissipation|        608834|             1|       1/s|        608834|
+------------------------------------------------------------------------------+
|           Mach Number|             -|             -|         -|         0.734|
|       Reynolds Number|             -|             -|         -|       6.5e+06|
+------------------------------------------------------------------------------+
Initialize Jacobian structure (Navier-Stokes). MG level: 0.
Initialize Jacobian structure (SA model).

------------------- Numerics Preprocessing ( Zone 0 ) -------------------

----------------- Integration Preprocessing ( Zone 0 ) ------------------

------------------- Iteration Preprocessing ( Zone 0 ) ------------------
Euler/Navier-Stokes/RANS fluid iteration.

------------------------------ Begin Solver -----------------------------

Simulation Run using the Single-zone Driver
WARNING: SU2 was not compiled for an AVX-capable architecture. Performance could be better,
         see https://su2code.github.io/docs_v7/Build-SU2-Linux-MacOS/#compiler-optimizations
+----------------------------------------------------------------+
|  Inner_Iter|    rms[Rho]|     rms[nu]|          CL|          CD|
+----------------------------------------------------------------+
|           0|   -4.821451|   -6.200679|    0.824112|    0.012018|
|           1|   -4.879576|   -6.306650|    0.824170|    0.012043|
|           2|   -4.941579|   -6.437312|    0.824184|    0.012058|
|           3|   -4.986581|   -6.593171|    0.824173|    0.012063|
|           4|   -5.014320|   -6.764134|    0.824154|    0.012064|
|           5|   -5.029048|   -6.894441|    0.824138|    0.012063|
|           6|   -5.034742|   -6.912909|    0.824130|    0.012062|
|           7|   -5.034895|   -6.871928|    0.824130|    0.012063|
|           8|   -5.032164|   -6.834475|    0.824135|    0.012065|
|           9|   -5.027911|   -6.808143|    0.824144|    0.012069|
|          10|   -5.022376|   -6.783277|    0.824156|    0.012074|
|          11|   -5.015340|   -6.753841|    0.824169|    0.012079|
|          12|   -5.006729|   -6.722505|    0.824184|    0.012086|
|          13|   -4.996812|   -6.695933|    0.824198|    0.012093|
|          14|   -4.986104|   -6.679344|    0.824211|    0.012101|
|          15|   -4.975181|   -6.674950|    0.824221|    0.012108|
|          16|   -4.964578|   -6.682487|    0.824230|    0.012116|
|          17|   -4.954777|   -6.699793|    0.824234|    0.012123|
|          18|   -4.946220|   -6.722936|    0.824235|    0.012130|
|          19|   -4.939312|   -6.746294|    0.824231|    0.012137|
|          20|   -4.934372|   -6.763530|    0.824223|    0.012142|
|          21|   -4.931579|   -6.770132|    0.824211|    0.012147|
|          22|   -4.930914|   -6.765981|    0.824194|    0.012151|
|          23|   -4.932151|   -6.755151|    0.824174|    0.012154|
|          24|   -4.934881|   -6.743089|    0.824152|    0.012156|
|          25|   -4.938579|   -6.734117|    0.824126|    0.012157|
|          26|   -4.942698|   -6.730604|    0.824099|    0.012157|
|          27|   -4.946742|   -6.733163|    0.824071|    0.012157|
|          28|   -4.950330|   -6.741071|    0.824042|    0.012155|
|          29|   -4.953200|   -6.752640|    0.824013|    0.012153|
|          30|   -4.955197|   -6.765573|    0.823984|    0.012150|
|          31|   -4.956231|   -6.777450|    0.823956|    0.012146|
|          32|   -4.956254|   -6.786364|    0.823930|    0.012141|
|          33|   -4.955258|   -6.791491|    0.823905|    0.012136|
|          34|   -4.953284|   -6.793272|    0.823881|    0.012130|
|          35|   -4.950443|   -6.793096|    0.823858|    0.012124|
|          36|   -4.946913|   -6.792707|    0.823837|    0.012117|
|          37|   -4.942924|   -6.793689|    0.823817|    0.012109|
|          38|   -4.938723|   -6.797191|    0.823799|    0.012101|
|          39|   -4.934534|   -6.803855|    0.823782|    0.012093|
|          40|   -4.930526|   -6.813856|    0.823766|    0.012085|
|          41|   -4.926799|   -6.826951|    0.823752|    0.012077|
|          42|   -4.923382|   -6.842509|    0.823739|    0.012068|
|          43|   -4.920242|   -6.859517|    0.823727|    0.012060|
|          44|   -4.917302|   -6.876599|    0.823716|    0.012052|
|          45|   -4.914457|   -6.892089|    0.823706|    0.012045|
|          46|   -4.911594|   -6.904246|    0.823698|    0.012038|
|          47|   -4.908602|   -6.911631|    0.823692|    0.012031|
|          48|   -4.905381|   -6.913504|    0.823686|    0.012024|
|          49|   -4.901849|   -6.910084|    0.823683|    0.012018|
|          50|   -4.897946|   -6.902492|    0.823680|    0.012012|
|          51|   -4.893634|   -6.892368|    0.823680|    0.012006|
|          52|   -4.888903|   -6.881436|    0.823681|    0.012001|
|          53|   -4.883765|   -6.871193|    0.823685|    0.011996|
|          54|   -4.878255|   -6.862762|    0.823690|    0.011991|
|          55|   -4.872427|   -6.856864|    0.823697|    0.011986|
|          56|   -4.866346|   -6.853864|    0.823705|    0.011982|
|          57|   -4.860085|   -6.853843|    0.823716|    0.011978|
|          58|   -4.853714|   -6.856656|    0.823728|    0.011974|
|          59|   -4.847298|   -6.861989|    0.823742|    0.011970|
|          60|   -4.840891|   -6.869411|    0.823757|    0.011966|
|          61|   -4.834534|   -6.878416|    0.823773|    0.011963|
|          62|   -4.828256|   -6.888474|    0.823790|    0.011959|
|          63|   -4.822078|   -6.899072|    0.823808|    0.011957|
|          64|   -4.816011|   -6.909748|    0.823826|    0.011954|
|          65|   -4.810065|   -6.920115|    0.823845|    0.011951|
|          66|   -4.804247|   -6.929868|    0.823863|    0.011949|
|          67|   -4.798571|   -6.938777|    0.823881|    0.011947|
|          68|   -4.793051|   -6.946681|    0.823898|    0.011945|
|          69|   -4.787705|   -6.953474|    0.823914|    0.011944|
|          70|   -4.782556|   -6.959105|    0.823930|    0.011942|
|          71|   -4.777624|   -6.963570|    0.823944|    0.011941|
|          72|   -4.772928|   -6.966913|    0.823957|    0.011940|
|          73|   -4.768483|   -6.969216|    0.823969|    0.011939|
|          74|   -4.764295|   -6.970594|    0.823979|    0.011939|
|          75|   -4.760365|   -6.971174|    0.823988|    0.011938|
|          76|   -4.756682|   -6.971068|    0.823996|    0.011938|
|          77|   -4.753231|   -6.970355|    0.824002|    0.011937|
|          78|   -4.749988|   -6.969080|    0.824008|    0.011937|
|          79|   -4.746927|   -6.967260|    0.824013|    0.011937|
|          80|   -4.744019|   -6.964898|    0.824016|    0.011937|
|          81|   -4.741240|   -6.962008|    0.824019|    0.011937|
|          82|   -4.738571|   -6.958635|    0.824022|    0.011937|
|          83|   -4.735998|   -6.954872|    0.824024|    0.011937|
|          84|   -4.733521|   -6.950869|    0.824025|    0.011938|
|          85|   -4.731148|   -6.946814|    0.824027|    0.011938|
|          86|   -4.728897|   -6.942923|    0.824028|    0.011939|
|          87|   -4.726797|   -6.939414|    0.824029|    0.011939|
|          88|   -4.724884|   -6.936486|    0.824030|    0.011940|
|          89|   -4.723197|   -6.934303|    0.824032|    0.011941|
|          90|   -4.721779|   -6.932983|    0.824033|    0.011942|
|          91|   -4.720671|   -6.932596|    0.824035|    0.011943|
|          92|   -4.719911|   -6.933158|    0.824036|    0.011945|
|          93|   -4.719532|   -6.934644|    0.824038|    0.011946|
|          94|   -4.719559|   -6.936987|    0.824041|    0.011948|
|          95|   -4.720009|   -6.940095|    0.824043|    0.011950|
|          96|   -4.720889|   -6.943855|    0.824046|    0.011952|
|          97|   -4.722194|   -6.948147|    0.824050|    0.011955|
|          98|   -4.723909|   -6.952851|    0.824053|    0.011957|
|          99|   -4.726008|   -6.957851|    0.824057|    0.011960|
|         100|   -4.728452|   -6.963046|    0.824061|    0.011963|
|         101|   -4.731192|   -6.968349|    0.824065|    0.011962|
+-----------------------------------------------------------------------+
|Fixed CL Mode                           |Value                         |
+-----------------------------------------------------------------------+
|Current CL                              |0.824065                      |
|Target CL                               |0.824                         |
|Previous AOA                            |2.76696                       |
|Changed AoA by                          |-0.000303899                  |
+-----------------------------------------------------------------------+
+----------------------------------------------------------------+
|  Inner_Iter|    rms[Rho]|     rms[nu]|          CL|          CD|
+----------------------------------------------------------------+
|         102|   -3.708035|   -6.968832|    0.824069|    0.011965|
|         103|   -4.076605|   -6.976441|    0.824074|    0.011968|
|         104|   -4.286774|   -6.982432|    0.824078|    0.011971|
|         105|   -4.352962|   -6.988065|    0.824082|    0.011975|
|         106|   -4.402216|   -6.993516|    0.824086|    0.011978|
|         107|   -4.463275|   -6.998831|    0.824090|    0.011982|
|         108|   -4.532820|   -7.004043|    0.824094|    0.011985|
|         109|   -4.598228|   -7.009182|    0.824097|    0.011989|
|         110|   -4.647680|   -7.014277|    0.824100|    0.011992|
|         111|   -4.678339|   -7.019347|    0.824103|    0.011995|
|         112|   -4.694074|   -7.024406|    0.824105|    0.011999|
|         113|   -4.699353|   -7.029476|    0.824107|    0.012002|
|         114|   -4.697880|   -7.034573|    0.824108|    0.012005|
|         115|   -4.693328|   -7.039710|    0.824108|    0.012008|
|         116|   -4.688898|   -7.044890|    0.824108|    0.012011|
|         117|   -4.686416|   -7.050112|    0.824108|    0.012013|
|         118|   -4.686096|   -7.055371|    0.824107|    0.012016|
|         119|   -4.687047|   -7.060660|    0.824105|    0.012018|
|         120|   -4.688089|   -7.065976|    0.824104|    0.012020|
|         121|   -4.688430|   -7.071317|    0.824101|    0.012022|
|         122|   -4.687923|   -7.076688|    0.824099|    0.012023|
|         123|   -4.686889|   -7.082095|    0.824096|    0.012025|
|         124|   -4.685781|   -7.087558|    0.824094|    0.012026|
|         125|   -4.684950|   -7.093102|    0.824091|    0.012027|
|         126|   -4.684581|   -7.098764|    0.824088|    0.012028|
|         127|   -4.684741|   -7.104578|    0.824085|    0.012029|
|         128|   -4.685429|   -7.110577|    0.824082|    0.012030|
|         129|   -4.686597|   -7.116789|    0.824079|    0.012030|
|         130|   -4.688157|   -7.123229|    0.824076|    0.012031|
|         131|   -4.689993|   -7.129902|    0.824074|    0.012031|
|         132|   -4.691979|   -7.136791|    0.824072|    0.012032|
|         133|   -4.694004|   -7.143861|    0.824070|    0.012032|
|         134|   -4.695985|   -7.151059|    0.824068|    0.012033|
|         135|   -4.697865|   -7.158312|    0.824066|    0.012033|
|         136|   -4.699600|   -7.165530|    0.824065|    0.012033|
|         137|   -4.701146|   -7.172608|    0.824064|    0.012034|
|         138|   -4.702450|   -7.179432|    0.824063|    0.012034|
|         139|   -4.703448|   -7.185889|    0.824062|    0.012034|
|         140|   -4.704069|   -7.191873|    0.824061|    0.012034|
|         141|   -4.704246|   -7.197291|    0.824060|    0.012035|
|         142|   -4.703927|   -7.202073|    0.824059|    0.012035|
|         143|   -4.703090|   -7.206177|    0.824058|    0.012035|
|         144|   -4.701750|   -7.209596|    0.824058|    0.012035|
|         145|   -4.699958|   -7.212360|    0.824057|    0.012035|
|         146|   -4.697791|   -7.214524|    0.824055|    0.012035|
|         147|   -4.695340|   -7.216166|    0.824054|    0.012035|
|         148|   -4.692691|   -7.217380|    0.824052|    0.012035|
|         149|   -4.689916|   -7.218265|    0.824051|    0.012035|
|         150|   -4.687063|   -7.218921|    0.824048|    0.012034|
|         151|   -4.684163|   -7.219438|    0.824046|    0.012034|
|         152|   -4.681231|   -7.219896|    0.824043|    0.012033|
|         153|   -4.678272|   -7.220353|    0.824040|    0.012033|
|         154|   -4.675290|   -7.220844|    0.824037|    0.012032|
|         155|   -4.672292|   -7.221380|    0.824033|    0.012031|
|         156|   -4.669292|   -7.221957|    0.824029|    0.012030|
|         157|   -4.666308|   -7.222549|    0.824025|    0.012030|
|         158|   -4.663364|   -7.223115|    0.824021|    0.012028|
|         159|   -4.660488|   -7.223604|    0.824017|    0.012027|
|         160|   -4.657705|   -7.223961|    0.824012|    0.012026|
|         161|   -4.655040|   -7.224129|    0.824007|    0.012025|
|         162|   -4.652514|   -7.224057|    0.824003|    0.012024|
|         163|   -4.650144|   -7.223694|    0.823998|    0.012022|
|         164|   -4.647944|   -7.223007|    0.823993|    0.012021|
|         165|   -4.645924|   -7.221985|    0.823989|    0.012019|
|         166|   -4.644089|   -7.220628|    0.823984|    0.012018|
|         167|   -4.642444|   -7.218962|    0.823980|    0.012016|
|         168|   -4.640988|   -7.217030|    0.823976|    0.012015|
|         169|   -4.639718|   -7.214892|    0.823972|    0.012013|
|         170|   -4.638628|   -7.212619|    0.823969|    0.012012|
|         171|   -4.637708|   -7.210291|    0.823966|    0.012010|
|         172|   -4.636949|   -7.207988|    0.823963|    0.012009|
|         173|   -4.636337|   -7.205785|    0.823961|    0.012007|
|         174|   -4.635859|   -7.203754|    0.823959|    0.012006|
|         175|   -4.635503|   -7.201963|    0.823957|    0.012004|
|         176|   -4.635257|   -7.200468|    0.823956|    0.012003|
|         177|   -4.635113|   -7.199314|    0.823955|    0.012001|
|         178|   -4.635063|   -7.198529|    0.823954|    0.012000|
|         179|   -4.635105|   -7.198135|    0.823954|    0.011999|
|         180|   -4.635241|   -7.198132|    0.823955|    0.011997|
|         181|   -4.635476|   -7.198515|    0.823955|    0.011996|
|         182|   -4.635819|   -7.199266|    0.823956|    0.011995|
|         183|   -4.636282|   -7.200358|    0.823958|    0.011994|
|         184|   -4.636879|   -7.201756|    0.823959|    0.011993|
|         185|   -4.637626|   -7.203420|    0.823961|    0.011992|
|         186|   -4.638540|   -7.205304|    0.823963|    0.011991|
|         187|   -4.639635|   -7.207364|    0.823966|    0.011990|
|         188|   -4.640923|   -7.209550|    0.823968|    0.011989|
|         189|   -4.642414|   -7.211819|    0.823971|    0.011988|
|         190|   -4.644110|   -7.214128|    0.823974|    0.011987|
|         191|   -4.646009|   -7.216442|    0.823977|    0.011986|
|         192|   -4.648103|   -7.218734|    0.823980|    0.011985|
|         193|   -4.650373|   -7.220982|    0.823984|    0.011984|
|         194|   -4.652794|   -7.223171|    0.823987|    0.011983|
|         195|   -4.655334|   -7.225295|    0.823991|    0.011983|
|         196|   -4.657951|   -7.227354|    0.823994|    0.011982|
|         197|   -4.660599|   -7.229356|    0.823998|    0.011981|
|         198|   -4.663225|   -7.231313|    0.824001|    0.011980|
|         199|   -4.665773|   -7.233243|    0.824005|    0.011980|
|         200|   -4.668189|   -7.235165|    0.824008|    0.011979|
|         201|   -4.670418|   -7.237102|    0.824012|    0.011978|
+-----------------------------------------------------------------------+
|Fixed CL Mode                           |Value                         |
+-----------------------------------------------------------------------+
|Current CL                              |0.824012                      |
|Target CL                               |0.824                         |
|Previous AOA                            |2.76665                       |
|Changed AoA by                          |-4.1377e-05                   |
+-----------------------------------------------------------------------+
+----------------------------------------------------------------+
|  Inner_Iter|    rms[Rho]|     rms[nu]|          CL|          CD|
+----------------------------------------------------------------+
|         202|   -4.470158|   -7.238650|    0.824015|    0.011978|
|         203|   -4.622252|   -7.240767|    0.824019|    0.011977|
|         204|   -4.653255|   -7.242880|    0.824022|    0.011977|
|         205|   -4.658373|   -7.245105|    0.824026|    0.011976|
|         206|   -4.662615|   -7.247468|    0.824029|    0.011976|
|         207|   -4.667499|   -7.249978|    0.824032|    0.011976|
|         208|   -4.671846|   -7.252637|    0.824036|    0.011976|
|         209|   -4.674868|   -7.255440|    0.824039|    0.011976|
|         210|   -4.676554|   -7.258380|    0.824042|    0.011976|
|         211|   -4.677318|   -7.261446|    0.824045|    0.011976|
|         212|   -4.677591|   -7.264624|    0.824048|    0.011976|
|         213|   -4.677679|   -7.267902|    0.824050|    0.011976|
|         214|   -4.677789|   -7.271263|    0.824053|    0.011976|
|         215|   -4.678091|   -7.274696|    0.824056|    0.011977|
|         216|   -4.678734|   -7.278182|    0.824058|    0.011977|
|         217|   -4.679838|   -7.281705|    0.824060|    0.011978|
|         218|   -4.681493|   -7.285256|    0.824062|    0.011978|
|         219|   -4.683759|   -7.288822|    0.824064|    0.011979|
|         220|   -4.686682|   -7.292395|    0.824066|    0.011980|
|         221|   -4.690304|   -7.295966|    0.824068|    0.011980|
|         222|   -4.694666|   -7.299533|    0.824069|    0.011981|
|         223|   -4.699806|   -7.303099|    0.824071|    0.011982|
|         224|   -4.705751|   -7.306668|    0.824072|    0.011983|
|         225|   -4.712520|   -7.310253|    0.824073|    0.011984|
|         226|   -4.720114|   -7.313873|    0.824074|    0.011985|
|         227|   -4.728525|   -7.317550|    0.824075|    0.011986|
|         228|   -4.737732|   -7.321309|    0.824075|    0.011987|
|         229|   -4.747706|   -7.325179|    0.824076|    0.011988|
|         230|   -4.758402|   -7.329190|    0.824076|    0.011989|
|         231|   -4.769764|   -7.333376|    0.824076|    0.011991|
|         232|   -4.781720|   -7.337770|    0.824077|    0.011992|
|         233|   -4.794181|   -7.342406|    0.824077|    0.011993|
|         234|   -4.807040|   -7.347316|    0.824077|    0.011994|
|         235|   -4.820174|   -7.352531|    0.824076|    0.011996|
|         236|   -4.833438|   -7.358076|    0.824076|    0.011997|
|         237|   -4.846672|   -7.363973|    0.824076|    0.011998|
|         238|   -4.859701|   -7.370240|    0.824076|    0.011999|
|         239|   -4.872340|   -7.376889|    0.824076|    0.012000|
|         240|   -4.884403|   -7.383927|    0.824075|    0.012002|
|         241|   -4.895708|   -7.391355|    0.824075|    0.012003|
|         242|   -4.906090|   -7.399168|    0.824075|    0.012004|
|         243|   -4.915412|   -7.407351|    0.824075|    0.012005|
|         244|   -4.923569|   -7.415885|    0.824074|    0.012006|
|         245|   -4.930501|   -7.424745|    0.824074|    0.012007|
|         246|   -4.936194|   -7.433896|    0.824074|    0.012008|
|         247|   -4.940675|   -7.443302|    0.824073|    0.012010|
|         248|   -4.944017|   -7.452917|    0.824073|    0.012011|
|         249|   -4.946321|   -7.462694|    0.824073|    0.012011|
|         250|   -4.947715|   -7.472581|    0.824072|    0.012012|
|         251|   -4.948342|   -7.482525|    0.824072|    0.012013|
|         252|   -4.948350|   -7.492473|    0.824071|    0.012014|
|         253|   -4.947887|   -7.502374|    0.824071|    0.012015|
|         254|   -4.947096|   -7.512182|    0.824070|    0.012016|
|         255|   -4.946108|   -7.521855|    0.824070|    0.012016|
|         256|   -4.945043|   -7.531357|    0.824069|    0.012017|
|         257|   -4.944006|   -7.540661|    0.824068|    0.012018|
|         258|   -4.943088|   -7.549750|    0.824067|    0.012018|
|         259|   -4.942367|   -7.558616|    0.824066|    0.012019|
|         260|   -4.941906|   -7.567259|    0.824065|    0.012019|
|         261|   -4.941759|   -7.575685|    0.824064|    0.012019|
|         262|   -4.941967|   -7.583903|    0.824063|    0.012020|
|         263|   -4.942563|   -7.591921|    0.824061|    0.012020|
|         264|   -4.943573|   -7.599746|    0.824060|    0.012020|
|         265|   -4.945016|   -7.607375|    0.824058|    0.012020|
|         266|   -4.946904|   -7.614794|    0.824056|    0.012020|
|         267|   -4.949247|   -7.621977|    0.824054|    0.012020|
|         268|   -4.952047|   -7.628884|    0.824052|    0.012020|
|         269|   -4.955307|   -7.635453|    0.824050|    0.012020|
|         270|   -4.959024|   -7.641612|    0.824048|    0.012020|
|         271|   -4.963193|   -7.647269|    0.824046|    0.012020|
|         272|   -4.967806|   -7.652327|    0.824044|    0.012020|
|         273|   -4.972853|   -7.656679|    0.824042|    0.012019|
|         274|   -4.978321|   -7.660222|    0.824039|    0.012019|
|         275|   -4.984196|   -7.662860|    0.824037|    0.012019|
|         276|   -4.990458|   -7.664518|    0.824035|    0.012018|
|         277|   -4.997088|   -7.665151|    0.824032|    0.012018|
|         278|   -5.004062|   -7.664746|    0.824030|    0.012017|
|         279|   -5.011354|   -7.663325|    0.824028|    0.012016|
|         280|   -5.018934|   -7.660951|    0.824026|    0.012016|
|         281|   -5.026769|   -7.657716|    0.824024|    0.012015|
|         282|   -5.034822|   -7.653740|    0.824022|    0.012014|
|         283|   -5.043056|   -7.649169|    0.824020|    0.012014|
|         284|   -5.051426|   -7.644160|    0.824018|    0.012013|
|         285|   -5.059888|   -7.638881|    0.824016|    0.012012|
|         286|   -5.068394|   -7.633493|    0.824015|    0.012011|
|         287|   -5.076892|   -7.628156|    0.824014|    0.012010|
|         288|   -5.085332|   -7.623014|    0.824012|    0.012010|
|         289|   -5.093662|   -7.618200|    0.824011|    0.012009|
|         290|   -5.101831|   -7.613828|    0.824010|    0.012008|
|         291|   -5.109790|   -7.609997|    0.824010|    0.012007|
|         292|   -5.117492|   -7.606787|    0.824009|    0.012006|
|         293|   -5.124896|   -7.604264|    0.824009|    0.012005|
|         294|   -5.131964|   -7.602480|    0.824008|    0.012004|
|         295|   -5.138666|   -7.601472|    0.824008|    0.012003|
|         296|   -5.144978|   -7.601263|    0.824008|    0.012002|
|         297|   -5.150882|   -7.601867|    0.824008|    0.012001|
|         298|   -5.156369|   -7.603284|    0.824009|    0.012001|
|         299|   -5.161435|   -7.605507|    0.824009|    0.012000|
|         300|   -5.166082|   -7.608514|    0.824010|    0.011999|
|         301|   -5.170318|   -7.612278|    0.824010|    0.011997|
+-----------------------------------------------------------------------+
|Fixed CL Mode                           |Value                         |
+-----------------------------------------------------------------------+
|Current CL                              |0.82401                       |
|Target CL                               |0.824                         |
|Previous AOA                            |2.76661                       |
|Changed AoA by                          |-4.76698e-05                  |
+-----------------------------------------------------------------------+
+----------------------------------------------------------------+
|  Inner_Iter|    rms[Rho]|     rms[nu]|          CL|          CD|
+----------------------------------------------------------------+
|         302|   -4.504231|   -7.614064|    0.824011|    0.011997|
|         303|   -4.839504|   -7.620322|    0.824012|    0.011996|
|         304|   -4.993551|   -7.626427|    0.824013|    0.011995|
|         305|   -5.031622|   -7.632968|    0.824014|    0.011994|
|         306|   -5.057199|   -7.639978|    0.824015|    0.011993|
|         307|   -5.086384|   -7.647406|    0.824016|    0.011993|
|         308|   -5.115639|   -7.655184|    0.824018|    0.011992|
|         309|   -5.139577|   -7.663234|    0.824019|    0.011991|
|         310|   -5.156142|   -7.671474|    0.824021|    0.011991|
|         311|   -5.166648|   -7.679819|    0.824022|    0.011990|
|         312|   -5.173120|   -7.688186|    0.824024|    0.011990|
|         313|   -5.176867|   -7.696491|    0.824025|    0.011989|
|         314|   -5.178680|   -7.704661|    0.824027|    0.011989|
|         315|   -5.179287|   -7.712626|    0.824029|    0.011988|
|         316|   -5.179388|   -7.720328|    0.824031|    0.011988|
|         317|   -5.179463|   -7.727720|    0.824032|    0.011987|
|         318|   -5.179666|   -7.734770|    0.824034|    0.011987|
|         319|   -5.179902|   -7.741465|    0.824036|    0.011987|
|         320|   -5.179995|   -7.747805|    0.824038|    0.011987|
|         321|   -5.179840|   -7.753806|    0.824040|    0.011986|
|         322|   -5.179443|   -7.759492|    0.824042|    0.011986|
|         323|   -5.178881|   -7.764896|    0.824043|    0.011986|
|         324|   -5.178229|   -7.770058|    0.824045|    0.011986|
|         325|   -5.177530|   -7.775019|    0.824047|    0.011986|
|         326|   -5.176792|   -7.779818|    0.824049|    0.011986|
|         327|   -5.176017|   -7.784497|    0.824051|    0.011986|
|         328|   -5.175212|   -7.789089|    0.824053|    0.011986|
|         329|   -5.174400|   -7.793623|    0.824055|    0.011986|
|         330|   -5.173614|   -7.798120|    0.824057|    0.011986|
|         331|   -5.172891|   -7.802590|    0.824059|    0.011986|
|         332|   -5.172268|   -7.807031|    0.824061|    0.011986|
|         333|   -5.171784|   -7.811429|    0.824063|    0.011987|
|         334|   -5.171476|   -7.815758|    0.824065|    0.011987|
|         335|   -5.171377|   -7.819982|    0.824067|    0.011987|
|         336|   -5.171515|   -7.824055|    0.824069|    0.011987|
|         337|   -5.171907|   -7.827923|    0.824071|    0.011988|
|         338|   -5.172565|   -7.831530|    0.824072|    0.011988|
|         339|   -5.173494|   -7.834818|    0.824074|    0.011988|
|         340|   -5.174693|   -7.837730|    0.824076|    0.011989|
|         341|   -5.176162|   -7.840217|    0.824078|    0.011989|
|         342|   -5.177899|   -7.842238|    0.824079|    0.011989|
|         343|   -5.179905|   -7.843765|    0.824081|    0.011990|
|         344|   -5.182185|   -7.844783|    0.824082|    0.011990|
|         345|   -5.184750|   -7.845292|    0.824084|    0.011991|
|         346|   -5.187610|   -7.845306|    0.824085|    0.011991|
|         347|   -5.190780|   -7.844857|    0.824086|    0.011992|
|         348|   -5.194268|   -7.843989|    0.824087|    0.011992|
|         349|   -5.198079|   -7.842758|    0.824089|    0.011992|
|         350|   -5.202212|   -7.841228|    0.824089|    0.011993|
|         351|   -5.206659|   -7.839472|    0.824090|    0.011993|
|         352|   -5.211405|   -7.837566|    0.824091|    0.011994|
|         353|   -5.216431|   -7.835589|    0.824092|    0.011994|
|         354|   -5.221717|   -7.833618|    0.824092|    0.011995|
|         355|   -5.227238|   -7.831729|    0.824092|    0.011995|
|         356|   -5.232970|   -7.829992|    0.824093|    0.011996|
|         357|   -5.238887|   -7.828472|    0.824093|    0.011996|
|         358|   -5.244961|   -7.827230|    0.824093|    0.011996|
|         359|   -5.251162|   -7.826317|    0.824093|    0.011997|
|         360|   -5.257458|   -7.825775|    0.824092|    0.011997|
|         361|   -5.263812|   -7.825642|    0.824092|    0.011998|
|         362|   -5.270184|   -7.825943|    0.824091|    0.011998|
|         363|   -5.276527|   -7.826699|    0.824091|    0.011998|
|         364|   -5.282795|   -7.827921|    0.824090|    0.011999|
|         365|   -5.288936|   -7.829610|    0.824089|    0.011999|
|         366|   -5.294898|   -7.831761|    0.824088|    0.011999|
|         367|   -5.300626|   -7.834356|    0.824087|    0.012000|
|         368|   -5.306070|   -7.837371|    0.824086|    0.012000|
|         369|   -5.311179|   -7.840773|    0.824084|    0.012000|
|         370|   -5.315909|   -7.844518|    0.824083|    0.012000|
|         371|   -5.320219|   -7.848550|    0.824081|    0.012001|
|         372|   -5.324078|   -7.852807|    0.824080|    0.012001|
|         373|   -5.327460|   -7.857217|    0.824078|    0.012001|
|         374|   -5.330350|   -7.861700|    0.824077|    0.012001|
|         375|   -5.332744|   -7.866171|    0.824075|    0.012001|
|         376|   -5.334645|   -7.870536|    0.824073|    0.012002|
|         377|   -5.336070|   -7.874705|    0.824071|    0.012002|
|         378|   -5.337042|   -7.878583|    0.824069|    0.012002|
|         379|   -5.337595|   -7.882085|    0.824068|    0.012002|
|         380|   -5.337770|   -7.885130|    0.824066|    0.012002|
|         381|   -5.337613|   -7.887653|    0.824064|    0.012002|
|         382|   -5.337176|   -7.889601|    0.824062|    0.012002|
|         383|   -5.336513|   -7.890940|    0.824060|    0.012002|
|         384|   -5.335678|   -7.891659|    0.824058|    0.012002|
|         385|   -5.334728|   -7.891763|    0.824057|    0.012002|
|         386|   -5.333715|   -7.891282|    0.824055|    0.012002|
|         387|   -5.332691|   -7.890261|    0.824053|    0.012002|
|         388|   -5.331702|   -7.888762|    0.824051|    0.012002|
|         389|   -5.330794|   -7.886856|    0.824050|    0.012002|
|         390|   -5.330003|   -7.884625|    0.824048|    0.012002|
|         391|   -5.329365|   -7.882152|    0.824046|    0.012002|
|         392|   -5.328908|   -7.879522|    0.824045|    0.012002|
|         393|   -5.328657|   -7.876816|    0.824043|    0.012002|
|         394|   -5.328630|   -7.874109|    0.824042|    0.012002|
|         395|   -5.328842|   -7.871469|    0.824041|    0.012002|
|         396|   -5.329302|   -7.868953|    0.824039|    0.012002|
|         397|   -5.330016|   -7.866612|    0.824038|    0.012002|
|         398|   -5.330987|   -7.864482|    0.824037|    0.012002|
|         399|   -5.332211|   -7.862592|    0.824036|    0.012001|
|         400|   -5.333685|   -7.860960|    0.824035|    0.012001|
|         401|   -5.335400|   -7.859594|    0.824034|    0.011999|
+-----------------------------------------------------------------------+
|Fixed CL Mode                           |Value                         |
+-----------------------------------------------------------------------+
|Current CL                              |0.824034                      |
|Target CL                               |0.824                         |
|Previous AOA                            |2.76656                       |
|Changed AoA by                          |-0.000175007                  |
+-----------------------------------------------------------------------+
+----------------------------------------------------------------+
|  Inner_Iter|    rms[Rho]|     rms[nu]|          CL|          CD|
+----------------------------------------------------------------+
|         402|   -3.950057|   -7.781851|    0.824033|    0.011998|
|         403|   -4.333022|   -7.816536|    0.824032|    0.011998|
|         404|   -4.572190|   -7.827844|    0.824032|    0.011998|
|         405|   -4.647123|   -7.834182|    0.824031|    0.011998|
|         406|   -4.697742|   -7.838601|    0.824030|    0.011998|
|         407|   -4.763248|   -7.841875|    0.824030|    0.011998|
|         408|   -4.842968|   -7.844342|    0.824030|    0.011997|
|         409|   -4.924040|   -7.846252|    0.824029|    0.011997|
|         410|   -4.991756|   -7.847776|    0.824029|    0.011997|
|         411|   -5.040260|   -7.848987|    0.824029|    0.011997|
|         412|   -5.072264|   -7.849937|    0.824028|    0.011997|
|         413|   -5.091565|   -7.850720|    0.824028|    0.011996|
|         414|   -5.101371|   -7.851450|    0.824028|    0.011996|
|         415|   -5.106164|   -7.852199|    0.824028|    0.011996|
|         416|   -5.111050|   -7.852969|    0.824028|    0.011996|
|         417|   -5.119551|   -7.853722|    0.824028|    0.011996|
|         418|   -5.132538|   -7.854431|    0.824029|    0.011995|
|         419|   -5.148666|   -7.855094|    0.824029|    0.011995|
|         420|   -5.165643|   -7.855730|    0.824029|    0.011995|
|         421|   -5.181665|   -7.856357|    0.824029|    0.011995|
|         422|   -5.196251|   -7.856981|    0.824030|    0.011995|
|         423|   -5.210036|   -7.857598|    0.824030|    0.011995|
|         424|   -5.223908|   -7.858192|    0.824031|    0.011994|
|         425|   -5.238278|   -7.858766|    0.824031|    0.011994|
|         426|   -5.252889|   -7.859324|    0.824032|    0.011994|
|         427|   -5.267051|   -7.859889|    0.824032|    0.011994|
|         428|   -5.279994|   -7.860487|    0.824033|    0.011994|
|         429|   -5.291135|   -7.861149|    0.824033|    0.011994|
|         430|   -5.300199|   -7.861904|    0.824034|    0.011994|
|         431|   -5.307240|   -7.862778|    0.824035|    0.011994|
|         432|   -5.312627|   -7.863791|    0.824035|    0.011994|
|         433|   -5.316965|   -7.864954|    0.824036|    0.011993|
|         434|   -5.320970|   -7.866264|    0.824037|    0.011993|
|         435|   -5.325304|   -7.867704|    0.824038|    0.011993|
|         436|   -5.330437|   -7.869248|    0.824039|    0.011993|
|         437|   -5.336569|   -7.870858|    0.824039|    0.011993|
|         438|   -5.343619|   -7.872491|    0.824040|    0.011993|
|         439|   -5.351245|   -7.874097|    0.824041|    0.011993|
|         440|   -5.358920|   -7.875627|    0.824042|    0.011993|
|         441|   -5.366021|   -7.877028|    0.824042|    0.011993|
|         442|   -5.371969|   -7.878252|    0.824043|    0.011993|
|         443|   -5.376359|   -7.879251|    0.824044|    0.011993|
|         444|   -5.379065|   -7.879986|    0.824045|    0.011993|
|         445|   -5.380261|   -7.880422|    0.824045|    0.011993|
|         446|   -5.380345|   -7.880529|    0.824046|    0.011993|
|         447|   -5.379817|   -7.880282|    0.824047|    0.011994|
|         448|   -5.379143|   -7.879663|    0.824047|    0.011994|
|         449|   -5.378659|   -7.878661|    0.824048|    0.011994|
|         450|   -5.378539|   -7.877273|    0.824048|    0.011994|
|         451|   -5.378797|   -7.875506|    0.824049|    0.011994|
|         452|   -5.379337|   -7.873377|    0.824049|    0.011994|
|         453|   -5.380003|   -7.870911|    0.824049|    0.011994|
|         454|   -5.380639|   -7.868147|    0.824050|    0.011994|
|         455|   -5.381131|   -7.865132|    0.824050|    0.011994|
|         456|   -5.381428|   -7.861918|    0.824050|    0.011994|
|         457|   -5.381548|   -7.858568|    0.824050|    0.011994|
|         458|   -5.381562|   -7.855149|    0.824050|    0.011995|
|         459|   -5.381574|   -7.851731|    0.824050|    0.011995|
|         460|   -5.381693|   -7.848390|    0.824049|    0.011995|
|         461|   -5.382017|   -7.845198|    0.824049|    0.011995|
|         462|   -5.382620|   -7.842226|    0.824049|    0.011995|
|         463|   -5.383555|   -7.839540|    0.824048|    0.011995|
|         464|   -5.384847|   -7.837203|    0.824048|    0.011995|
|         465|   -5.386510|   -7.835271|    0.824047|    0.011995|
|         466|   -5.388544|   -7.833791|    0.824046|    0.011995|
|         467|   -5.390947|   -7.832803|    0.824045|    0.011995|
|         468|   -5.393718|   -7.832336|    0.824045|    0.011995|
|         469|   -5.396854|   -7.832413|    0.824044|    0.011995|
|         470|   -5.400355|   -7.833042|    0.824043|    0.011995|
|         471|   -5.404219|   -7.834223|    0.824042|    0.011996|
|         472|   -5.408445|   -7.835944|    0.824041|    0.011996|
|         473|   -5.413024|   -7.838181|    0.824040|    0.011996|
|         474|   -5.417947|   -7.840896|    0.824039|    0.011996|
|         475|   -5.423195|   -7.844040|    0.824038|    0.011996|
|         476|   -5.428747|   -7.847553|    0.824037|    0.011996|
|         477|   -5.434578|   -7.851363|    0.824036|    0.011996|
|         478|   -5.440655|   -7.855386|    0.824035|    0.011996|
|         479|   -5.446942|   -7.859531|    0.824034|    0.011996|
|         480|   -5.453399|   -7.863704|    0.824033|    0.011996|
|         481|   -5.459982|   -7.867804|    0.824032|    0.011996|
|         482|   -5.466643|   -7.871734|    0.824031|    0.011996|
|         483|   -5.473330|   -7.875403|    0.824031|    0.011996|
|         484|   -5.479987|   -7.878730|    0.824030|    0.011996|
|         485|   -5.486557|   -7.881649|    0.824029|    0.011996|
|         486|   -5.492979|   -7.884113|    0.824029|    0.011995|
|         487|   -5.499193|   -7.886097|    0.824028|    0.011995|
|         488|   -5.505139|   -7.887604|    0.824028|    0.011995|
|         489|   -5.510758|   -7.888652|    0.824027|    0.011995|
|         490|   -5.515996|   -7.889284|    0.824027|    0.011995|
|         491|   -5.520804|   -7.889558|    0.824027|    0.011995|
|         492|   -5.525137|   -7.889550|    0.824027|    0.011995|
|         493|   -5.528960|   -7.889344|    0.824026|    0.011995|
|         494|   -5.532246|   -7.889031|    0.824026|    0.011995|
|         495|   -5.534980|   -7.888703|    0.824026|    0.011995|
|         496|   -5.537154|   -7.888450|    0.824026|    0.011995|
|         497|   -5.538771|   -7.888355|    0.824026|    0.011994|
|         498|   -5.539847|   -7.888494|    0.824026|    0.011994|
|         499|   -5.540404|   -7.888933|    0.824026|    0.011994|
|         500|   -5.540475|   -7.889726|    0.824026|    0.011994|
|         501|   -5.540097|   -7.890915|    0.824026|    0.011992|
+-----------------------------------------------------------------------+
|Fixed CL Mode                           |Value                         |
+-----------------------------------------------------------------------+
|Current CL                              |0.824026                      |
|Target CL                               |0.824                         |
|Previous AOA                            |2.76639                       |
|Changed AoA by                          |-0.00013158                   |
+-----------------------------------------------------------------------+
+----------------------------------------------------------------+
|  Inner_Iter|    rms[Rho]|     rms[nu]|          CL|          CD|
+----------------------------------------------------------------+
|         502|   -4.074158|   -7.840784|    0.824027|    0.011992|
|         503|   -4.458609|   -7.867983|    0.824027|    0.011992|
|         504|   -4.701303|   -7.878355|    0.824027|    0.011991|
|         505|   -4.777351|   -7.885580|    0.824027|    0.011991|
|         506|   -4.827820|   -7.891877|    0.824027|    0.011991|
|         507|   -4.893268|   -7.897755|    0.824028|    0.011991|
|         508|   -4.973201|   -7.903385|    0.824028|    0.011991|
|         509|   -5.054427|   -7.908877|    0.824028|    0.011991|
|         510|   -5.121662|   -7.914296|    0.824028|    0.011990|
|         511|   -5.168819|   -7.919649|    0.824029|    0.011990|
|         512|   -5.198926|   -7.924927|    0.824029|    0.011990|
|         513|   -5.216246|   -7.930156|    0.824029|    0.011990|
|         514|   -5.224321|   -7.935389|    0.824030|    0.011990|
|         515|   -5.227726|   -7.940636|    0.824030|    0.011990|
|         516|   -5.231454|   -7.945862|    0.824030|    0.011990|
|         517|   -5.238832|   -7.950991|    0.824030|    0.011989|
|         518|   -5.250575|   -7.955944|    0.824031|    0.011989|
|         519|   -5.265263|   -7.960666|    0.824031|    0.011989|
|         520|   -5.280620|   -7.965113|    0.824031|    0.011989|
|         521|   -5.294927|   -7.969241|    0.824031|    0.011989|
|         522|   -5.307789|   -7.972992|    0.824032|    0.011989|
|         523|   -5.319893|   -7.976304|    0.824032|    0.011989|
|         524|   -5.332146|   -7.979110|    0.824032|    0.011989|
|         525|   -5.344989|   -7.981363|    0.824032|    0.011989|
|         526|   -5.358224|   -7.983031|    0.824032|    0.011989|
|         527|   -5.371241|   -7.984122|    0.824032|    0.011989|
|         528|   -5.383346|   -7.984662|    0.824032|    0.011988|
|         529|   -5.394000|   -7.984699|    0.824032|    0.011988|
|         530|   -5.402923|   -7.984296|    0.824032|    0.011988|
|         531|   -5.410133|   -7.983526|    0.824032|    0.011988|
|         532|   -5.415937|   -7.982465|    0.824032|    0.011988|
|         533|   -5.420884|   -7.981188|    0.824032|    0.011988|
|         534|   -5.425649|   -7.979762|    0.824032|    0.011989|
|         535|   -5.430890|   -7.978248|    0.824032|    0.011989|
|         536|   -5.437108|   -7.976696|    0.824032|    0.011989|
|         537|   -5.444571|   -7.975149|    0.824031|    0.011989|
|         538|   -5.453286|   -7.973640|    0.824031|    0.011989|
|         539|   -5.463016|   -7.972201|    0.824031|    0.011989|
|         540|   -5.473321|   -7.970856|    0.824031|    0.011989|
|         541|   -5.483640|   -7.969627|    0.824030|    0.011989|
|         542|   -5.493397|   -7.968535|    0.824030|    0.011989|
|         543|   -5.502128|   -7.967595|    0.824030|    0.011989|
|         544|   -5.509594|   -7.966823|    0.824029|    0.011990|
|         545|   -5.515832|   -7.966229|    0.824029|    0.011990|
|         546|   -5.521120|   -7.965822|    0.824028|    0.011990|
|         547|   -5.525873|   -7.965605|    0.824028|    0.011990|
|         548|   -5.530514|   -7.965575|    0.824027|    0.011990|
|         549|   -5.535368|   -7.965724|    0.824027|    0.011990|
|         550|   -5.540595|   -7.966040|    0.824026|    0.011991|
|         551|   -5.546184|   -7.966502|    0.824026|    0.011991|
|         552|   -5.551981|   -7.967086|    0.824025|    0.011991|
|         553|   -5.557744|   -7.967764|    0.824025|    0.011991|
|         554|   -5.563208|   -7.968503|    0.824024|    0.011992|
|         555|   -5.568145|   -7.969270|    0.824023|    0.011992|
|         556|   -5.572407|   -7.970028|    0.824023|    0.011992|
|         557|   -5.575941|   -7.970739|    0.824022|    0.011992|
|         558|   -5.578781|   -7.971369|    0.824021|    0.011993|
|         559|   -5.581025|   -7.971887|    0.824020|    0.011993|
|         560|   -5.582794|   -7.972266|    0.824019|    0.011993|
|         561|   -5.584213|   -7.972489|    0.824018|    0.011993|
|         562|   -5.585385|   -7.972544|    0.824018|    0.011994|
|         563|   -5.586383|   -7.972429|    0.824017|    0.011994|
|         564|   -5.587257|   -7.972151|    0.824016|    0.011994|
|         565|   -5.588036|   -7.971728|    0.824015|    0.011994|
|         566|   -5.588740|   -7.971184|    0.824013|    0.011995|
|         567|   -5.589390|   -7.970546|    0.824012|    0.011995|
|         568|   -5.590007|   -7.969866|    0.824011|    0.011995|
|         569|   -5.590618|   -7.969184|    0.824010|    0.011995|
|         570|   -5.591257|   -7.968542|    0.824009|    0.011996|
|         571|   -5.591957|   -7.967983|    0.824008|    0.011996|
|         572|   -5.592752|   -7.967546|    0.824007|    0.011996|
|         573|   -5.593674|   -7.967271|    0.824006|    0.011996|
|         574|   -5.594751|   -7.967193|    0.824005|    0.011996|
|         575|   -5.596008|   -7.967338|    0.824004|    0.011997|
|         576|   -5.597466|   -7.967728|    0.824003|    0.011997|
|         577|   -5.599142|   -7.968376|    0.824002|    0.011997|
|         578|   -5.601053|   -7.969286|    0.824001|    0.011997|
|         579|   -5.603212|   -7.970453|    0.824000|    0.011997|
|         580|   -5.605631|   -7.971865|    0.823999|    0.011997|
|         581|   -5.608321|   -7.973497|    0.823998|    0.011998|
|         582|   -5.611290|   -7.975321|    0.823997|    0.011998|
|         583|   -5.614545|   -7.977298|    0.823997|    0.011998|
|         584|   -5.618093|   -7.979386|    0.823996|    0.011998|
|         585|   -5.621936|   -7.981537|    0.823995|    0.011998|
|         586|   -5.626074|   -7.983705|    0.823995|    0.011998|
|         587|   -5.630507|   -7.985840|    0.823994|    0.011998|
|         588|   -5.635230|   -7.987900|    0.823994|    0.011998|
|         589|   -5.640237|   -7.989845|    0.823993|    0.011998|
|         590|   -5.645519|   -7.991644|    0.823993|    0.011998|
|         591|   -5.651064|   -7.993274|    0.823993|    0.011998|
|         592|   -5.656856|   -7.994723|    0.823993|    0.011998|
|         593|   -5.662877|   -7.995989|    0.823992|    0.011998|
|         594|   -5.669105|   -7.997082|    0.823992|    0.011998|
|         595|   -5.675512|   -7.998020|    0.823992|    0.011998|
|         596|   -5.682070|   -7.998831|    0.823992|    0.011998|
|         597|   -5.688742|   -7.999547|    0.823992|    0.011998|
|         598|   -5.695491|   -8.000208|    0.823992|    0.011997|
|         599|   -5.702274|   -8.000855|    0.823992|    0.011997|
|         600|   -5.709043|   -8.001527|    0.823993|    0.011997|
|         601|   -5.715749|   -8.002261|    0.823993|    0.011997|
+-----------------------------------------------------------------------+
|Fixed CL Mode                           |Value                         |
+-----------------------------------------------------------------------+
|Current CL                              |0.823993                      |
|Target CL                               |0.824                         |
|Previous AOA                            |2.76626                       |
|Changed AoA by                          |3.72162e-05                   |
+-----------------------------------------------------------------------+
+----------------------------------------------------------------+
|  Inner_Iter|    rms[Rho]|     rms[nu]|          CL|          CD|
+----------------------------------------------------------------+
|         602|   -4.621072|   -7.995089|    0.823993|    0.011997|
|         603|   -4.999512|   -7.999945|    0.823993|    0.011997|
|         604|   -5.231540|   -8.002166|    0.823993|    0.011997|
|         605|   -5.304843|   -8.004008|    0.823994|    0.011997|
|         606|   -5.353505|   -8.005836|    0.823994|    0.011996|
|         607|   -5.413328|   -8.007743|    0.823994|    0.011996|
|         608|   -5.481924|   -8.009770|    0.823994|    0.011996|
|         609|   -5.545947|   -8.011930|    0.823995|    0.011996|
|         610|   -5.593416|   -8.014212|    0.823995|    0.011996|
|         611|   -5.622807|   -8.016594|    0.823995|    0.011995|
|         612|   -5.639319|   -8.019053|    0.823996|    0.011995|
|         613|   -5.647581|   -8.021571|    0.823996|    0.011995|
|         614|   -5.650671|   -8.024138|    0.823996|    0.011994|
|         615|   -5.651583|   -8.026740|    0.823996|    0.011994|
|         616|   -5.653156|   -8.029364|    0.823997|    0.011994|
|         617|   -5.657076|   -8.031996|    0.823997|    0.011994|
|         618|   -5.663411|   -8.034625|    0.823997|    0.011993|
|         619|   -5.670988|   -8.037248|    0.823997|    0.011993|
|         620|   -5.678263|   -8.039870|    0.823998|    0.011993|
|         621|   -5.684180|   -8.042497|    0.823998|    0.011993|
|         622|   -5.688540|   -8.045141|    0.823998|    0.011992|
|         623|   -5.691785|   -8.047811|    0.823998|    0.011992|
|         624|   -5.694507|   -8.050520|    0.823998|    0.011992|
|         625|   -5.697103|   -8.053281|    0.823998|    0.011992|
|         626|   -5.699701|   -8.056105|    0.823998|    0.011992|
|         627|   -5.702260|   -8.059007|    0.823998|    0.011991|
|         628|   -5.704691|   -8.061996|    0.823999|    0.011991|
|         629|   -5.706920|   -8.065079|    0.823999|    0.011991|
|         630|   -5.708909|   -8.068259|    0.823999|    0.011991|
|         631|   -5.710659|   -8.071534|    0.823999|    0.011991|
|         632|   -5.712224|   -8.074900|    0.823999|    0.011990|
|         633|   -5.713718|   -8.078346|    0.823999|    0.011990|
|         634|   -5.715301|   -8.081858|    0.823999|    0.011990|
|         635|   -5.717152|   -8.085417|    0.823998|    0.011990|
|         636|   -5.719425|   -8.089003|    0.823998|    0.011990|
|         637|   -5.722228|   -8.092595|    0.823998|    0.011990|
|         638|   -5.725605|   -8.096171|    0.823998|    0.011990|
|         639|   -5.729536|   -8.099708|    0.823998|    0.011990|
|         640|   -5.733950|   -8.103187|    0.823998|    0.011990|
|         641|   -5.738744|   -8.106592|    0.823998|    0.011989|
|         642|   -5.743808|   -8.109911|    0.823998|    0.011989|
|         643|   -5.749053|   -8.113137|    0.823999|    0.011989|
|         644|   -5.754434|   -8.116270|    0.823999|    0.011989|
|         645|   -5.759956|   -8.119317|    0.823999|    0.011989|
|         646|   -5.765673|   -8.122287|    0.823999|    0.011990|
|         647|   -5.771664|   -8.125199|    0.823999|    0.011990|
|         648|   -5.778015|   -8.128072|    0.823999|    0.011990|
|         649|   -5.784788|   -8.130925|    0.823999|    0.011990|
|         650|   -5.792014|   -8.133801|    0.824000|    0.011990|
|         651|   -5.799682|   -8.136736|    0.824000|    0.011990|
|         652|   -5.807746|   -8.139771|    0.824000|    0.011990|
|         653|   -5.816135|   -8.142938|    0.824000|    0.011990|
|         654|   -5.824765|   -8.146266|    0.824001|    0.011990|
|         655|   -5.833556|   -8.149778|    0.824001|    0.011991|
|         656|   -5.842437|   -8.153489|    0.824002|    0.011991|
|         657|   -5.851356|   -8.157409|    0.824002|    0.011991|
|         658|   -5.860274|   -8.161540|    0.824002|    0.011991|
|         659|   -5.869164|   -8.165879|    0.824003|    0.011991|
|         660|   -5.878007|   -8.170414|    0.824003|    0.011992|
|         661|   -5.886777|   -8.175124|    0.824004|    0.011992|
|         662|   -5.895446|   -8.179983|    0.824004|    0.011992|
|         663|   -5.903972|   -8.184955|    0.824005|    0.011993|
|         664|   -5.912306|   -8.189998|    0.824005|    0.011993|
|         665|   -5.920392|   -8.195062|    0.824006|    0.011993|
|         666|   -5.928170|   -8.200094|    0.824006|    0.011993|
|         667|   -5.935577|   -8.205035|    0.824007|    0.011994|
|         668|   -5.942556|   -8.209825|    0.824007|    0.011994|
|         669|   -5.949057|   -8.214407|    0.824008|    0.011994|
|         670|   -5.955036|   -8.218723|    0.824008|    0.011995|
|         671|   -5.960458|   -8.222726|    0.824009|    0.011995|
|         672|   -5.965299|   -8.226373|    0.824009|    0.011995|
|         673|   -5.969545|   -8.229635|    0.824009|    0.011996|
|         674|   -5.973193|   -8.232496|    0.824010|    0.011996|
|         675|   -5.976249|   -8.234954|    0.824010|    0.011996|
|         676|   -5.978733|   -8.237019|    0.824010|    0.011996|
|         677|   -5.980673|   -8.238719|    0.824010|    0.011997|
|         678|   -5.982108|   -8.240090|    0.824011|    0.011997|
|         679|   -5.983087|   -8.241183|    0.824011|    0.011997|
|         680|   -5.983663|   -8.242055|    0.824011|    0.011998|
|         681|   -5.983898|   -8.242768|    0.824011|    0.011998|
|         682|   -5.983856|   -8.243388|    0.824011|    0.011998|
|         683|   -5.983603|   -8.243982|    0.824011|    0.011998|
|         684|   -5.983206|   -8.244611|    0.824011|    0.011999|
|         685|   -5.982731|   -8.245334|    0.824011|    0.011999|
|         686|   -5.982240|   -8.246204|    0.824010|    0.011999|
|         687|   -5.981796|   -8.247264|    0.824010|    0.011999|
|         688|   -5.981455|   -8.248551|    0.824010|    0.011999|
|         689|   -5.981269|   -8.250089|    0.824010|    0.011999|
|         690|   -5.981287|   -8.251895|    0.824009|    0.012000|
|         691|   -5.981554|   -8.253973|    0.824009|    0.012000|
|         692|   -5.982108|   -8.256322|    0.824009|    0.012000|
|         693|   -5.982985|   -8.258931|    0.824008|    0.012000|
|         694|   -5.984216|   -8.261781|    0.824008|    0.012000|
|         695|   -5.985828|   -8.264850|    0.824007|    0.012000|
|         696|   -5.987842|   -8.268107|    0.824007|    0.012000|
|         697|   -5.990278|   -8.271504|    0.824006|    0.012000|
|         698|   -5.993149|   -8.274988|    0.824006|    0.012000|
|         699|   -5.996468|   -8.278504|    0.824005|    0.012000|
|         700|   -6.000241|   -8.281995|    0.824005|    0.012000|
|         701|   -6.004472|   -8.285407|    0.824004|    0.012000|
+-----------------------------------------------------------------------+
|Fixed CL Mode                           |Value                         |
+-----------------------------------------------------------------------+
|Current CL                              |0.824004                      |
|Target CL                               |0.824                         |
|Previous AOA                            |2.76629                       |
|Changed AoA by                          |-2.47218e-05                  |
+-----------------------------------------------------------------------+
+----------------------------------------------------------------+
|  Inner_Iter|    rms[Rho]|     rms[nu]|          CL|          CD|
+----------------------------------------------------------------+
|         702|   -4.799806|   -8.276929|    0.824004|    0.012000|
|         703|   -5.182773|   -8.286062|    0.824003|    0.012000|
|         704|   -5.423433|   -8.290556|    0.824003|    0.012000|
|         705|   -5.499124|   -8.294021|    0.824003|    0.012000|
|         706|   -5.548488|   -8.297004|    0.824002|    0.012000|
|         707|   -5.610888|   -8.299598|    0.824002|    0.012000|
|         708|   -5.685072|   -8.301807|    0.824001|    0.011999|
|         709|   -5.757636|   -8.303630|    0.824001|    0.011999|
|         710|   -5.814835|   -8.305075|    0.824000|    0.011999|
|         711|   -5.853084|   -8.306158|    0.824000|    0.011999|
|         712|   -5.876835|   -8.306913|    0.823999|    0.011999|
|         713|   -5.890734|   -8.307394|    0.823999|    0.011999|
|         714|   -5.898136|   -8.307666|    0.823999|    0.011999|
|         715|   -5.902747|   -8.307789|    0.823998|    0.011998|
|         716|   -5.908392|   -8.307808|    0.823998|    0.011998|
|         717|   -5.917548|   -8.307759|    0.823997|    0.011998|
|         718|   -5.930584|   -8.307676|    0.823997|    0.011998|
|         719|   -5.946095|   -8.307591|    0.823997|    0.011998|
|         720|   -5.961943|   -8.307539|    0.823996|    0.011997|
|         721|   -5.976469|   -8.307543|    0.823996|    0.011997|
|         722|   -5.989202|   -8.307621|    0.823996|    0.011997|
|         723|   -6.000693|   -8.307787|    0.823996|    0.011997|
|         724|   -6.011799|   -8.308046|    0.823995|    0.011997|
|         725|   -6.023058|   -8.308405|    0.823995|    0.011996|
|         726|   -6.034513|   -8.308870|    0.823995|    0.011996|
|         727|   -6.045856|   -8.309444|    0.823995|    0.011996|
|         728|   -6.056653|   -8.310132|    0.823995|    0.011996|
|         729|   -6.066514|   -8.310938|    0.823995|    0.011995|
|         730|   -6.075160|   -8.311869|    0.823995|    0.011995|
|         731|   -6.082468|   -8.312928|    0.823994|    0.011995|
|         732|   -6.088512|   -8.314124|    0.823994|    0.011995|
|         733|   -6.093570|   -8.315462|    0.823994|    0.011994|
|         734|   -6.098071|   -8.316952|    0.823994|    0.011994|
|         735|   -6.102495|   -8.318601|    0.823994|    0.011994|
|         736|   -6.107253|   -8.320419|    0.823994|    0.011994|
|         737|   -6.112606|   -8.322412|    0.823994|    0.011994|
|         738|   -6.118627|   -8.324588|    0.823994|    0.011993|
|         739|   -6.125199|   -8.326956|    0.823995|    0.011993|
|         740|   -6.132056|   -8.329522|    0.823995|    0.011993|
|         741|   -6.138839|   -8.332293|    0.823995|    0.011993|
|         742|   -6.145180|   -8.335273|    0.823995|    0.011993|
|         743|   -6.150793|   -8.338469|    0.823995|    0.011992|
|         744|   -6.155552|   -8.341883|    0.823995|    0.011992|
|         745|   -6.159512|   -8.345517|    0.823995|    0.011992|
|         746|   -6.162889|   -8.349372|    0.823995|    0.011992|
|         747|   -6.165984|   -8.353447|    0.823995|    0.011992|
|         748|   -6.169100|   -8.357736|    0.823996|    0.011992|
|         749|   -6.172472|   -8.362236|    0.823996|    0.011992|
|         750|   -6.176226|   -8.366937|    0.823996|    0.011991|
|         751|   -6.180369|   -8.371831|    0.823996|    0.011991|
|         752|   -6.184817|   -8.376906|    0.823996|    0.011991|
|         753|   -6.189420|   -8.382152|    0.823996|    0.011991|
|         754|   -6.194014|   -8.387555|    0.823996|    0.011991|
|         755|   -6.198451|   -8.393102|    0.823997|    0.011991|
|         756|   -6.202625|   -8.398782|    0.823997|    0.011991|
|         757|   -6.206486|   -8.404586|    0.823997|    0.011991|
|         758|   -6.210029|   -8.410502|    0.823997|    0.011991|
|         759|   -6.213283|   -8.416524|    0.823997|    0.011991|
|         760|   -6.216296|   -8.422646|    0.823997|    0.011991|
|         761|   -6.219110|   -8.428863|    0.823997|    0.011991|
|         762|   -6.221758|   -8.435174|    0.823997|    0.011991|
|         763|   -6.224253|   -8.441582|    0.823997|    0.011991|
|         764|   -6.226593|   -8.448089|    0.823997|    0.011991|
|         765|   -6.228763|   -8.454699|    0.823997|    0.011991|
|         766|   -6.230743|   -8.461414|    0.823997|    0.011991|
|         767|   -6.232513|   -8.468239|    0.823997|    0.011991|
|         768|   -6.234054|   -8.475175|    0.823997|    0.011991|
|         769|   -6.235355|   -8.482222|    0.823997|    0.011992|
|         770|   -6.236410|   -8.489379|    0.823997|    0.011992|
|         771|   -6.237216|   -8.496638|    0.823997|    0.011992|
|         772|   -6.237775|   -8.503990|    0.823997|    0.011992|
|         773|   -6.238089|   -8.511418|    0.823997|    0.011992|
|         774|   -6.238164|   -8.518897|    0.823997|    0.011992|
|         775|   -6.238005|   -8.526402|    0.823997|    0.011992|
|         776|   -6.237620|   -8.533898|    0.823997|    0.011993|
|         777|   -6.237020|   -8.541351|    0.823997|    0.011993|
|         778|   -6.236217|   -8.548722|    0.823997|    0.011993|
|         779|   -6.235225|   -8.555971|    0.823997|    0.011993|
|         780|   -6.234061|   -8.563059|    0.823997|    0.011993|
|         781|   -6.232746|   -8.569949|    0.823997|    0.011993|
|         782|   -6.231299|   -8.576609|    0.823997|    0.011994|
|         783|   -6.229743|   -8.583014|    0.823997|    0.011994|
|         784|   -6.228102|   -8.589145|    0.823997|    0.011994|
|         785|   -6.226400|   -8.594993|    0.823997|    0.011994|
|         786|   -6.224662|   -8.600557|    0.823997|    0.011994|
|         787|   -6.222913|   -8.605846|    0.823997|    0.011995|
|         788|   -6.221177|   -8.610875|    0.823997|    0.011995|
|         789|   -6.219479|   -8.615666|    0.823997|    0.011995|
|         790|   -6.217840|   -8.620245|    0.823997|    0.011995|
|         791|   -6.216284|   -8.624643|    0.823997|    0.011996|
|         792|   -6.214830|   -8.628888|    0.823998|    0.011996|
|         793|   -6.213495|   -8.633010|    0.823998|    0.011996|
|         794|   -6.212297|   -8.637036|    0.823998|    0.011996|
|         795|   -6.211247|   -8.640988|    0.823998|    0.011996|
|         796|   -6.210356|   -8.644885|    0.823998|    0.011997|
|         797|   -6.209629|   -8.648739|    0.823998|    0.011997|
|         798|   -6.209070|   -8.652559|    0.823998|    0.011997|
|         799|   -6.208678|   -8.656347|    0.823998|    0.011997|
|         800|   -6.208449|   -8.660102|    0.823998|    0.011997|
|         801|   -6.208372|   -8.663819|    0.823998|    0.011998|
+-----------------------------------------------------------------------+
|Fixed CL Mode                           |Value                         |
+-----------------------------------------------------------------------+
|Current CL                              |0.823998                      |
|Target CL                               |0.824                         |
|Previous AOA                            |2.76627                       |
|Changed AoA by                          |1.11297e-05                   |
+-----------------------------------------------------------------------+
+----------------------------------------------------------------+
|  Inner_Iter|    rms[Rho]|     rms[nu]|          CL|          CD|
+----------------------------------------------------------------+
|         802|   -5.144954|   -8.651927|    0.823998|    0.011998|
|         803|   -5.519229|   -8.662885|    0.823998|    0.011998|
|         804|   -5.739409|   -8.668687|    0.823998|    0.011998|
|         805|   -5.805399|   -8.673382|    0.823998|    0.011998|
|         806|   -5.849872|   -8.677608|    0.823998|    0.011998|
|         807|   -5.904866|   -8.681547|    0.823998|    0.011998|
|         808|   -5.967255|   -8.685290|    0.823998|    0.011998|
|         809|   -6.025021|   -8.688904|    0.823998|    0.011999|
|         810|   -6.068386|   -8.692427|    0.823997|    0.011999|
|         811|   -6.096465|   -8.695874|    0.823997|    0.011999|
|         812|   -6.113424|   -8.699250|    0.823997|    0.011999|
|         813|   -6.122813|   -8.702568|    0.823997|    0.011999|
|         814|   -6.127001|   -8.705848|    0.823997|    0.011999|
|         815|   -6.128427|   -8.709108|    0.823997|    0.011999|
|         816|   -6.129530|   -8.712358|    0.823997|    0.011999|
|         817|   -6.131883|   -8.715605|    0.823997|    0.011999|
|         818|   -6.135746|   -8.718860|    0.823997|    0.011999|
|         819|   -6.140374|   -8.722143|    0.823996|    0.011999|
|         820|   -6.144726|   -8.725474|    0.823996|    0.011999|
|         821|   -6.148110|   -8.728869|    0.823996|    0.011999|
|         822|   -6.150419|   -8.732339|    0.823996|    0.011999|
|         823|   -6.151943|   -8.735880|    0.823996|    0.011999|
|         824|   -6.153022|   -8.739479|    0.823996|    0.011999|
|         825|   -6.153831|   -8.743119|    0.823996|    0.011999|
|         826|   -6.154366|   -8.746772|    0.823995|    0.011999|
|         827|   -6.154543|   -8.750407|    0.823995|    0.011998|
|         828|   -6.154292|   -8.753985|    0.823995|    0.011998|
|         829|   -6.153604|   -8.757477|    0.823995|    0.011998|
|         830|   -6.152521|   -8.760834|    0.823995|    0.011998|
|         831|   -6.151124|   -8.764010|    0.823994|    0.011998|
|         832|   -6.149525|   -8.766961|    0.823994|    0.011998|
|         833|   -6.147859|   -8.769644|    0.823994|    0.011998|
|         834|   -6.146266|   -8.772015|    0.823994|    0.011998|
|         835|   -6.144873|   -8.774038|    0.823994|    0.011998|
|         836|   -6.143776|   -8.775680|    0.823994|    0.011997|
|         837|   -6.143030|   -8.776917|    0.823994|    0.011997|
|         838|   -6.142646|   -8.777732|    0.823993|    0.011997|
|         839|   -6.142598|   -8.778117|    0.823993|    0.011997|
|         840|   -6.142837|   -8.778076|    0.823993|    0.011997|
|         841|   -6.143304|   -8.777620|    0.823993|    0.011997|
|         842|   -6.143947|   -8.776774|    0.823993|    0.011996|
|         843|   -6.144731|   -8.775567|    0.823993|    0.011996|
|         844|   -6.145649|   -8.774041|    0.823993|    0.011996|
|         845|   -6.146720|   -8.772244|    0.823993|    0.011996|
|         846|   -6.147984|   -8.770228|    0.823993|    0.011996|
|         847|   -6.149487|   -8.768054|    0.823993|    0.011996|
|         848|   -6.151271|   -8.765778|    0.823993|    0.011996|
|         849|   -6.153358|   -8.763461|    0.823993|    0.011995|
|         850|   -6.155748|   -8.761172|    0.823993|    0.011995|
|         851|   -6.158420|   -8.758971|    0.823993|    0.011995|
|         852|   -6.161332|   -8.756920|    0.823993|    0.011995|
|         853|   -6.164431|   -8.755075|    0.823993|    0.011995|
|         854|   -6.167661|   -8.753493|    0.823993|    0.011995|
|         855|   -6.170967|   -8.752224|    0.823993|    0.011995|
|         856|   -6.174302|   -8.751316|    0.823993|    0.011994|
|         857|   -6.177624|   -8.750813|    0.823993|    0.011994|
|         858|   -6.180901|   -8.750753|    0.823993|    0.011994|
|         859|   -6.184102|   -8.751170|    0.823994|    0.011994|
|         860|   -6.187198|   -8.752088|    0.823994|    0.011994|
|         861|   -6.190161|   -8.753530|    0.823994|    0.011994|
|         862|   -6.192959|   -8.755508|    0.823994|    0.011994|
|         863|   -6.195560|   -8.758025|    0.823994|    0.011994|
|         864|   -6.197928|   -8.761079|    0.823995|    0.011994|
|         865|   -6.200030|   -8.764654|    0.823995|    0.011994|
|         866|   -6.201835|   -8.768726|    0.823995|    0.011993|
|         867|   -6.203317|   -8.773258|    0.823996|    0.011993|
|         868|   -6.204454|   -8.778198|    0.823996|    0.011993|
|         869|   -6.205232|   -8.783483|    0.823996|    0.011993|
|         870|   -6.205643|   -8.789037|    0.823996|    0.011993|
|         871|   -6.205688|   -8.794768|    0.823997|    0.011993|
|         872|   -6.205372|   -8.800571|    0.823997|    0.011993|
|         873|   -6.204708|   -8.806331|    0.823997|    0.011993|
|         874|   -6.203714|   -8.811926|    0.823997|    0.011993|
|         875|   -6.202414|   -8.817226|    0.823998|    0.011993|
|         876|   -6.200836|   -8.822106|    0.823998|    0.011993|
|         877|   -6.199012|   -8.826446|    0.823998|    0.011993|
|         878|   -6.196978|   -8.830141|    0.823999|    0.011993|
|         879|   -6.194771|   -8.833105|    0.823999|    0.011993|
|         880|   -6.192431|   -8.835280|    0.823999|    0.011993|
|         881|   -6.189998|   -8.836636|    0.823999|    0.011993|
|         882|   -6.187511|   -8.837177|    0.824000|    0.011993|
|         883|   -6.185011|   -8.836936|    0.824000|    0.011993|
|         884|   -6.182537|   -8.835978|    0.824000|    0.011993|
|         885|   -6.180124|   -8.834388|    0.824000|    0.011994|
|         886|   -6.177809|   -8.832271|    0.824000|    0.011994|
|         887|   -6.175623|   -8.829743|    0.824000|    0.011994|
|         888|   -6.173597|   -8.826923|    0.824001|    0.011994|
|         889|   -6.171759|   -8.823928|    0.824001|    0.011994|
|         890|   -6.170132|   -8.820871|    0.824001|    0.011994|
|         891|   -6.168739|   -8.817852|    0.824001|    0.011994|
|         892|   -6.167598|   -8.814960|    0.824001|    0.011994|
|         893|   -6.166727|   -8.812269|    0.824001|    0.011994|
|         894|   -6.166138|   -8.809838|    0.824001|    0.011994|
|         895|   -6.165843|   -8.807715|    0.824001|    0.011994|
|         896|   -6.165850|   -8.805930|    0.824001|    0.011995|
|         897|   -6.166164|   -8.804503|    0.824001|    0.011995|
|         898|   -6.166790|   -8.803442|    0.824001|    0.011995|
|         899|   -6.167728|   -8.802746|    0.824001|    0.011995|
|         900|   -6.168976|   -8.802407|    0.824001|    0.011995|
|         901|   -6.170533|   -8.802407|    0.824001|    0.011995|
+-----------------------------------------------------------------------+
|Fixed CL Mode                           |Value                         |
+-----------------------------------------------------------------------+
|Current CL                              |0.824001                      |
|Target CL                               |0.824                         |
|Previous AOA                            |2.76628                       |
[...]
|        5298|   -6.048016|   -7.936079|    0.824239|    0.012000|
|        5299|   -6.054718|   -7.939987|    0.824239|    0.012000|
|        5300|   -6.060990|   -7.943931|    0.824240|    0.012000|
|        5301|   -6.066798|   -7.947928|    0.824240|    0.012000|
|        5302|   -6.072122|   -7.951988|    0.824240|    0.012000|
|        5303|   -6.076955|   -7.956124|    0.824240|    0.012000|
|        5304|   -6.081300|   -7.960341|    0.824240|    0.012000|
|        5305|   -6.085174|   -7.964646|    0.824240|    0.011999|
|        5306|   -6.088607|   -7.969042|    0.824240|    0.011999|
|        5307|   -6.091638|   -7.973530|    0.824240|    0.011999|
|        5308|   -6.094312|   -7.978113|    0.824240|    0.011999|
|        5309|   -6.096683|   -7.982790|    0.824240|    0.011999|
|        5310|   -6.098808|   -7.987563|    0.824240|    0.011999|
|        5311|   -6.100748|   -7.992431|    0.824240|    0.011999|
|        5312|   -6.102562|   -7.997396|    0.824241|    0.011999|
|        5313|   -6.104309|   -8.002459|    0.824241|    0.011999|
|        5314|   -6.106045|   -8.007621|    0.824241|    0.011999|
|        5315|   -6.107824|   -8.012887|    0.824241|    0.011999|
|        5316|   -6.109691|   -8.018260|    0.824241|    0.011999|
|        5317|   -6.111689|   -8.023744|    0.824241|    0.011999|
|        5318|   -6.113855|   -8.029343|    0.824241|    0.011999|
|        5319|   -6.116218|   -8.035061|    0.824241|    0.011999|
|        5320|   -6.118800|   -8.040903|    0.824241|    0.012000|
|        5321|   -6.121619|   -8.046873|    0.824242|    0.012000|
|        5322|   -6.124683|   -8.052974|    0.824242|    0.012000|
|        5323|   -6.127997|   -8.059207|    0.824242|    0.012000|
|        5324|   -6.131554|   -8.065573|    0.824242|    0.012000|
|        5325|   -6.135346|   -8.072072|    0.824242|    0.012000|
|        5326|   -6.139356|   -8.078701|    0.824242|    0.012000|
|        5327|   -6.143560|   -8.085456|    0.824242|    0.012000|
|        5328|   -6.147931|   -8.092332|    0.824243|    0.012000|
|        5329|   -6.152435|   -8.099323|    0.824243|    0.012000|
|        5330|   -6.157035|   -8.106422|    0.824243|    0.012000|
|        5331|   -6.161688|   -8.113620|    0.824243|    0.012000|
|        5332|   -6.166353|   -8.120906|    0.824243|    0.012000|
|        5333|   -6.170982|   -8.128272|    0.824243|    0.012000|
|        5334|   -6.175530|   -8.135705|    0.824243|    0.012001|
|        5335|   -6.179953|   -8.143198|    0.824244|    0.012001|
|        5336|   -6.184209|   -8.150740|    0.824244|    0.012001|
|        5337|   -6.188260|   -8.158320|    0.824244|    0.012001|
|        5338|   -6.192074|   -8.165929|    0.824244|    0.012001|
|        5339|   -6.195628|   -8.173557|    0.824244|    0.012001|
|        5340|   -6.198902|   -8.181196|    0.824244|    0.012001|
|        5341|   -6.201889|   -8.188842|    0.824244|    0.012001|
|        5342|   -6.204588|   -8.196488|    0.824245|    0.012001|
|        5343|   -6.207007|   -8.204131|    0.824245|    0.012001|
|        5344|   -6.209164|   -8.211769|    0.824245|    0.012001|
|        5345|   -6.211083|   -8.219400|    0.824245|    0.012001|
|        5346|   -6.212796|   -8.227020|    0.824245|    0.012001|
|        5347|   -6.214340|   -8.234633|    0.824245|    0.012001|
|        5348|   -6.215756|   -8.242240|    0.824245|    0.012002|
|        5349|   -6.217089|   -8.249843|    0.824245|    0.012002|
|        5350|   -6.218383|   -8.257447|    0.824245|    0.012002|
|        5351|   -6.219686|   -8.265053|    0.824245|    0.012002|
|        5352|   -6.221043|   -8.272667|    0.824245|    0.012002|
|        5353|   -6.222496|   -8.280291|    0.824245|    0.012002|
|        5354|   -6.224086|   -8.287930|    0.824246|    0.012002|
|        5355|   -6.225851|   -8.295586|    0.824246|    0.012002|
|        5356|   -6.227824|   -8.303263|    0.824246|    0.012002|
|        5357|   -6.230035|   -8.310962|    0.824246|    0.012002|
|        5358|   -6.232507|   -8.318686|    0.824246|    0.012002|
|        5359|   -6.235262|   -8.326434|    0.824246|    0.012002|
|        5360|   -6.238313|   -8.334206|    0.824246|    0.012002|
|        5361|   -6.241672|   -8.342002|    0.824246|    0.012002|
|        5362|   -6.245344|   -8.349818|    0.824246|    0.012002|
|        5363|   -6.249328|   -8.357651|    0.824246|    0.012002|
|        5364|   -6.253621|   -8.365493|    0.824246|    0.012002|
|        5365|   -6.258211|   -8.373337|    0.824246|    0.012002|
|        5366|   -6.263085|   -8.381182|    0.824246|    0.012002|
|        5367|   -6.268222|   -8.389018|    0.824246|    0.012002|
|        5368|   -6.273597|   -8.396829|    0.824246|    0.012002|
|        5369|   -6.279182|   -8.404600|    0.824246|    0.012002|
|        5370|   -6.284942|   -8.412318|    0.824246|    0.012002|
|        5371|   -6.290840|   -8.419966|    0.824246|    0.012002|
|        5372|   -6.296834|   -8.427531|    0.824246|    0.012002|
|        5373|   -6.302879|   -8.435005|    0.824246|    0.012002|
|        5374|   -6.308930|   -8.442377|    0.824245|    0.012002|
|        5375|   -6.314935|   -8.449640|    0.824245|    0.012002|
|        5376|   -6.320848|   -8.456785|    0.824245|    0.012002|
|        5377|   -6.326618|   -8.463812|    0.824245|    0.012002|
|        5378|   -6.332199|   -8.470714|    0.824245|    0.012002|
|        5379|   -6.337546|   -8.477480|    0.824245|    0.012001|
|        5380|   -6.342618|   -8.484107|    0.824245|    0.012001|
|        5381|   -6.347381|   -8.490594|    0.824245|    0.012001|
|        5382|   -6.351806|   -8.496933|    0.824245|    0.012001|
|        5383|   -6.355869|   -8.503128|    0.824245|    0.012001|
|        5384|   -6.359556|   -8.509186|    0.824245|    0.012001|
|        5385|   -6.362859|   -8.515116|    0.824245|    0.012001|
|        5386|   -6.365778|   -8.520923|    0.824245|    0.012001|
|        5387|   -6.368319|   -8.526617|    0.824245|    0.012001|
|        5388|   -6.370494|   -8.532202|    0.824245|    0.012001|
|        5389|   -6.372322|   -8.537684|    0.824245|    0.012001|
|        5390|   -6.373823|   -8.543065|    0.824245|    0.012001|
|        5391|   -6.375024|   -8.548347|    0.824245|    0.012000|
|        5392|   -6.375951|   -8.553529|    0.824246|    0.012000|
|        5393|   -6.376630|   -8.558606|    0.824246|    0.012000|
|        5394|   -6.377090|   -8.563575|    0.824246|    0.012000|
|        5395|   -6.377357|   -8.568426|    0.824246|    0.012000|
|        5396|   -6.377455|   -8.573151|    0.824246|    0.012000|
|        5397|   -6.377408|   -8.577737|    0.824246|    0.012000|
|        5398|   -6.377234|   -8.582173|    0.824246|    0.012000|
|        5399|   -6.376952|   -8.586444|    0.824246|    0.012000|
|        5400|   -6.376576|   -8.590537|    0.824246|    0.012000|
|        5401|   -6.376119|   -8.594440|    0.824246|    0.011999|
|        5402|   -6.375590|   -8.598159|    0.824246|    0.011999|
|        5403|   -6.374997|   -8.601687|    0.824247|    0.011999|
|        5404|   -6.374346|   -8.605009|    0.824247|    0.011999|
|        5405|   -6.373642|   -8.608118|    0.824247|    0.011999|
|        5406|   -6.372889|   -8.611010|    0.824247|    0.011999|
|        5407|   -6.372089|   -8.613686|    0.824247|    0.011999|
|        5408|   -6.371244|   -8.616151|    0.824247|    0.011999|
|        5409|   -6.370356|   -8.618413|    0.824247|    0.011999|
|        5410|   -6.369427|   -8.620485|    0.824248|    0.011999|
|        5411|   -6.368460|   -8.622381|    0.824248|    0.011998|
|        5412|   -6.367457|   -8.624118|    0.824248|    0.011998|
|        5413|   -6.366420|   -8.625714|    0.824248|    0.011998|
|        5414|   -6.365354|   -8.627192|    0.824248|    0.011998|
|        5415|   -6.364263|   -8.628582|    0.824248|    0.011998|
|        5416|   -6.363150|   -8.629902|    0.824248|    0.011998|
|        5417|   -6.362023|   -8.631168|    0.824248|    0.011998|
|        5418|   -6.360886|   -8.632395|    0.824249|    0.011998|
|        5419|   -6.359747|   -8.633594|    0.824249|    0.011998|
|        5420|   -6.358614|   -8.634773|    0.824249|    0.011998|
|        5421|   -6.357492|   -8.635939|    0.824249|    0.011998|
|        5422|   -6.356395|   -8.637097|    0.824249|    0.011998|
|        5423|   -6.355331|   -8.638248|    0.824249|    0.011998|
|        5424|   -6.354312|   -8.639388|    0.824249|    0.011998|
|        5425|   -6.353349|   -8.640511|    0.824249|    0.011998|
|        5426|   -6.352454|   -8.641608|    0.824249|    0.011998|
|        5427|   -6.351640|   -8.642669|    0.824249|    0.011998|
|        5428|   -6.350922|   -8.643684|    0.824249|    0.011997|
|        5429|   -6.350313|   -8.644643|    0.824249|    0.011997|
|        5430|   -6.349828|   -8.645537|    0.824250|    0.011997|
|        5431|   -6.349483|   -8.646359|    0.824250|    0.011997|
|        5432|   -6.349294|   -8.647105|    0.824250|    0.011997|
|        5433|   -6.349275|   -8.647771|    0.824250|    0.011997|
|        5434|   -6.349442|   -8.648354|    0.824250|    0.011997|
|        5435|   -6.349811|   -8.648857|    0.824250|    0.011997|
|        5436|   -6.350395|   -8.649281|    0.824250|    0.011997|
|        5437|   -6.351209|   -8.649630|    0.824250|    0.011998|
|        5438|   -6.352267|   -8.649910|    0.824250|    0.011998|
|        5439|   -6.353578|   -8.650129|    0.824250|    0.011998|
|        5440|   -6.355155|   -8.650295|    0.824250|    0.011998|
|        5441|   -6.357006|   -8.650417|    0.824250|    0.011998|
|        5442|   -6.359138|   -8.650508|    0.824250|    0.011998|
|        5443|   -6.361555|   -8.650579|    0.824250|    0.011998|
|        5444|   -6.364259|   -8.650642|    0.824250|    0.011998|
|        5445|   -6.367252|   -8.650708|    0.824250|    0.011998|
|        5446|   -6.370529|   -8.650787|    0.824250|    0.011998|
|        5447|   -6.374084|   -8.650888|    0.824250|    0.011998|
|        5448|   -6.377909|   -8.651015|    0.824250|    0.011998|
|        5449|   -6.381991|   -8.651175|    0.824250|    0.011998|
|        5450|   -6.386314|   -8.651373|    0.824250|    0.011998|
|        5451|   -6.390858|   -8.651612|    0.824250|    0.011998|
|        5452|   -6.395601|   -8.651893|    0.824250|    0.011998|
|        5453|   -6.400514|   -8.652217|    0.824250|    0.011998|
|        5454|   -6.405569|   -8.652580|    0.824250|    0.011998|
|        5455|   -6.410731|   -8.652982|    0.824250|    0.011999|
|        5456|   -6.415962|   -8.653419|    0.824250|    0.011999|
|        5457|   -6.421223|   -8.653887|    0.824250|    0.011999|
|        5458|   -6.426470|   -8.654380|    0.824250|    0.011999|
|        5459|   -6.431659|   -8.654895|    0.824250|    0.011999|
|        5460|   -6.436745|   -8.655424|    0.824250|    0.011999|
|        5461|   -6.441680|   -8.655965|    0.824249|    0.011999|
|        5462|   -6.446419|   -8.656510|    0.824249|    0.011999|
|        5463|   -6.450917|   -8.657055|    0.824249|    0.011999|
|        5464|   -6.455133|   -8.657596|    0.824249|    0.011999|
|        5465|   -6.459029|   -8.658128|    0.824249|    0.011999|
|        5466|   -6.462570|   -8.658648|    0.824249|    0.011999|
|        5467|   -6.465730|   -8.659152|    0.824249|    0.012000|
|        5468|   -6.468486|   -8.659640|    0.824249|    0.012000|
|        5469|   -6.470825|   -8.660107|    0.824249|    0.012000|
|        5470|   -6.472739|   -8.660554|    0.824248|    0.012000|
|        5471|   -6.474229|   -8.660979|    0.824248|    0.012000|
|        5472|   -6.475303|   -8.661383|    0.824248|    0.012000|
|        5473|   -6.475975|   -8.661764|    0.824248|    0.012000|
|        5474|   -6.476268|   -8.662123|    0.824248|    0.012000|
|        5475|   -6.476206|   -8.662461|    0.824248|    0.012000|
|        5476|   -6.475823|   -8.662778|    0.824248|    0.012000|
|        5477|   -6.475153|   -8.663076|    0.824248|    0.012000|
|        5478|   -6.474234|   -8.663354|    0.824247|    0.012000|
|        5479|   -6.473104|   -8.663615|    0.824247|    0.012000|
|        5480|   -6.471804|   -8.663859|    0.824247|    0.012000|
|        5481|   -6.470373|   -8.664088|    0.824247|    0.012000|
|        5482|   -6.468851|   -8.664303|    0.824247|    0.012000|
|        5483|   -6.467274|   -8.664507|    0.824247|    0.012000|
|        5484|   -6.465678|   -8.664700|    0.824246|    0.012000|
|        5485|   -6.464096|   -8.664886|    0.824246|    0.012000|
|        5486|   -6.462559|   -8.665066|    0.824246|    0.012001|
|        5487|   -6.461096|   -8.665245|    0.824246|    0.012001|
|        5488|   -6.459730|   -8.665424|    0.824246|    0.012001|
|        5489|   -6.458486|   -8.665607|    0.824246|    0.012001|
|        5490|   -6.457382|   -8.665799|    0.824246|    0.012001|
|        5491|   -6.456435|   -8.666005|    0.824245|    0.012001|
|        5492|   -6.455660|   -8.666228|    0.824245|    0.012001|
|        5493|   -6.455069|   -8.666475|    0.824245|    0.012001|
|        5494|   -6.454672|   -8.666750|    0.824245|    0.012001|
|        5495|   -6.454477|   -8.667061|    0.824245|    0.012000|
|        5496|   -6.454489|   -8.667414|    0.824245|    0.012000|
|        5497|   -6.454713|   -8.667814|    0.824245|    0.012000|
|        5498|   -6.455151|   -8.668268|    0.824245|    0.012000|
|        5499|   -6.455805|   -8.668783|    0.824245|    0.011986|
+-----------------------------------------------------------------------+
|Fixed CL Mode (Finite Difference)       |Value                         |
+-----------------------------------------------------------------------+
|Delta CL / Delta AoA                    |0.244061                      |
|Delta CD / Delta CL                     |0.0196727                     |
|Delta CMz / Delta CL                    |0.00856688                    |
+-----------------------------------------------------------------------+
Writing Flow Meta-Data file: flow.meta

----------------------------- Solver Exit -------------------------------

Maximum number of iterations reached (ITER = 5500) before convergence.
+-----------------------------------------------------------------------+
|      Convergence Field     |     Value    |   Criterion  |  Converged |
+-----------------------------------------------------------------------+
|                    rms[Rho]|      -6.45581|         < -12|          No|
+-----------------------------------------------------------------------+
-------------------------------------------------------------------------

--------------------------- Finalizing Solver ---------------------------
Deleted CNumerics container.
Deleted CIntegration container.
Deleted CSolver container.
Deleted CIteration container.
Deleted CInterface container.
Deleted CGeometry container.
Deleted CFreeFormDefBox class.
Deleted CSurfaceMovement class.
Deleted CVolumetricMovement class.
Deleted CConfig container.
Deleted nInst container.
Deleted COutput class.
-------------------------------------------------------------------------

------------------------- Exit Success (SU2_CFD) ------------------------


-------------------------------------------------------------------------
|    ___ _   _ ___                                                      |
|   / __| | | |_  )   Release 8.0.0 "Harrier"                           |
|   \__ \ |_| |/ /                                                      |
|   |___/\___//___|   Suite (Solution Exporting Code)                   |
|                                                                       |
-------------------------------------------------------------------------
| SU2 Project Website: https://su2code.github.io                        |
|                                                                       |
| The SU2 Project is maintained by the SU2 Foundation                   |
| (http://su2foundation.org)                                            |
-------------------------------------------------------------------------
| Copyright 2012-2023, SU2 Contributors                                 |
|                                                                       |
| SU2 is free software; you can redistribute it and/or                  |
| modify it under the terms of the GNU Lesser General Public            |
| License as published by the Free Software Foundation; either          |
| version 2.1 of the License, or (at your option) any later version.    |
|                                                                       |
| SU2 is distributed in the hope that it will be useful,                |
| but WITHOUT ANY WARRANTY; without even the implied warranty of        |
| MERCHANTABILITY or FITNESS FOR A PARTICULAR PURPOSE. See the GNU      |
| Lesser General Public License for more details.                       |
|                                                                       |
| You should have received a copy of the GNU Lesser General Public      |
| License along with SU2. If not, see <http://www.gnu.org/licenses/>.   |
-------------------------------------------------------------------------

----------------- Physical Case Definition ( Zone 0 ) -------------------
Input mesh file name: mesh_RAE2822_turb_deform.su2

-------------------- Output Information ( Zone 0 ) ----------------------
The tabular file format is CSV (.csv).
Flow variables file name: flow.

------------- Config File Boundary Information ( Zone 0 ) ---------------
+-----------------------------------------------------------------------+
|                        Marker Type|                        Marker Name|
+-----------------------------------------------------------------------+
|                          Far-field|                           FARFIELD|
+-----------------------------------------------------------------------+
|                     Heat flux wall|                            AIRFOIL|
+-----------------------------------------------------------------------+
Two dimensional problem.
13937 grid points before partitioning.
22842 volume elements before partitioning.
2 surface markers.
192 boundary elements in index 0 (Marker = AIRFOIL).
40 boundary elements in index 1 (Marker = FARFIELD).
Executing the partitioning functions.
Building the graph adjacency structure.
Calling ParMETIS... graph partitioning complete (831 edge cuts).
Distributing ParMETIS coloring.
Rebalancing vertices.
Rebalancing volume element connectivity.
Rebalancing markers and surface elements.
14875 vertices including ghost points. 
23674 interior elements including halo cells. 
18780 triangles.
4894 quadrilaterals.
Establishing MPI communication patterns.
Identify vertices.
Storing a mapping from global to local point index.

------------------------- Solution Postprocessing -----------------------
Reading and storing the solution from restart_flow.
Volume output fields: COORDINATES, SOLUTION
  Info: Ignoring the following screen output fields:
  RMS_DENSITY, RMS_NU_TILDE, LIFT, DRAG
Screen output fields: INNER_ITER
  Info: Ignoring the following history output groups:
  RMS_RES, AERO_COEFF
History output group(s): ITER
Warning: No (valid) fields chosen for convergence monitoring. Convergence monitoring inactive.
Warning: No (valid) fields chosen for time convergence monitoring. Time convergence monitoring inactive.
|Paraview                           |flow.vtu                           |
|Paraview surface                   |surface_flow.vtu                   |
|CSV file                           |surface_flow.csv                   |

------------------------- Finalize Solver -------------------------
Deleted CGeometry container.
Deleted CSolver class.
Deleted CConfig container.
Deleted COutput class.

Completed in 0.015419 seconds on 6 cores.

------------------------- Exit Success (SU2_SOL) ------------------------

