
-------------------------------------------------------------------------
|    ___ _   _ ___                                                      |
|   / __| | | |_  )   Release 8.0.0 "Harrier"                           |
|   \__ \ |_| |/ /                                                      |
|   |___/\___//___|   Suite (Computational Fluid Dynamics Code)         |
|                                                                       |
-------------------------------------------------------------------------
| SU2 Project Website: https://su2code.github.io                        |
|                                                                       |
| The SU2 Project is maintained by the SU2 Foundation                   |
| (http://su2foundation.org)                                            |
-------------------------------------------------------------------------
| Copyright 2012-2023, SU2 Contributors                                 |
|                                                                       |
| SU2 is free software; you can redistribute it and/or                  |
| modify it under the terms of the GNU Lesser General Public            |
| License as published by the Free Software Foundation; either          |
| version 2.1 of the License, or (at your option) any later version.    |
|                                                                       |
| SU2 is distributed in the hope that it will be useful,                |
| but WITHOUT ANY WARRANTY; without even the implied warranty of        |
| MERCHANTABILITY or FITNESS FOR A PARTICULAR PURPOSE. See the GNU      |
| Lesser General Public License for more details.                       |
|                                                                       |
| You should have received a copy of the GNU Lesser General Public      |
| License along with SU2. If not, see <http://www.gnu.org/licenses/>.   |
-------------------------------------------------------------------------

Parsing config file for zone 0

----------------- Physical Case Definition ( Zone 0 ) -------------------
Compressible RANS equations.
Turbulence model: Spalart-Allmaras-noft2
Hybrid RANS/LES: No Hybrid RANS/LES
Mach number: 0.734.
Angle of attack (AoA): 2.31 deg, and angle of sideslip (AoS): 0 deg.
Reynolds number: 6.5e+06. Reference length 1.
Fixed CL mode, target value: 0.824.
Reading and writing binary SU2 native restart files.
Read flow solution from: solution_flow.dat.
Dimensional simulation.
The reference area is 1 m^2.
The semi-span will be computed using the max y(3D) value.
The reference length is 1 m.
Reference origin for moment evaluation is (0.25, 0, 0).
Surface(s) where the force coefficients are evaluated: AIRFOIL.

Surface(s) plotted in the output file: AIRFOIL.
Surface(s) affected by the design variables: AIRFOIL.
Input mesh file name: mesh_RAE2822_turb_deform.su2

--------------- Space Numerical Integration ( Zone 0 ) ------------------
Jameson-Schmidt-Turkel scheme (2nd order in space) for the flow inviscid terms.
JST viscous coefficients (2nd & 4th): 0.5, 0.02.
The method includes a grid stretching correction (p = 0.3).
Scalar upwind solver for the turbulence model.
First order integration in space.
Average of gradients with correction (viscous flow terms).
Average of gradients with correction (viscous turbulence terms).
Gradient for viscous and source terms: inverse-distance weighted Least-Squares.

--------------- Time Numerical Integration  ( Zone 0 ) ------------------
Local time stepping (steady state simulation).
Euler implicit method for the flow equations.
FGMRES is used for solving the linear system.
Using a ILU(0) preconditioning.
Convergence criteria of the linear solver: 1e-06.
Max number of linear iterations: 10.
No CFL adaptation.
Courant-Friedrichs-Lewy number:       10
Euler implicit time integration for the turbulence model.

------------------ Convergence Criteria  ( Zone 0 ) ---------------------
Maximum number of solver subiterations: 5500.
Begin convergence monitoring at iteration 10.
Residual minimum value: 1e-12.
Cauchy series min. value: 1e-06.
Number of Cauchy elements: 100.
Begin windowed time average at iteration 0.

-------------------- Output Information ( Zone 0 ) ----------------------
File writing frequency: 
+------------------------------------+
|                     File| Frequency|
+------------------------------------+
|                  RESTART|     10000|
|                 PARAVIEW|     10000|
|         SURFACE_PARAVIEW|     10000|
|              SURFACE_CSV|     10000|
+------------------------------------+
Writing the convergence history file every 1 inner iterations.
Writing the screen convergence history every 1 inner iterations.
The tabular file format is CSV (.csv).
Convergence history file name: history_direct.
Forces breakdown file name: forces_breakdown.dat.
Surface file name: surface_flow.
Volume file name: flow.
Restart file name: restart_flow.dat.

------------- Config File Boundary Information ( Zone 0 ) ---------------
+-----------------------------------------------------------------------+
|                        Marker Type|                        Marker Name|
+-----------------------------------------------------------------------+
|                          Far-field|                           FARFIELD|
+-----------------------------------------------------------------------+
|                     Heat flux wall|                            AIRFOIL|
+-----------------------------------------------------------------------+

-------------------- Output Preprocessing ( Zone 0 ) --------------------

WARNING: SURFACE_PRESSURE_DROP can only be computed for at least 2 surfaces (outlet, inlet, ...)

Screen output fields: INNER_ITER, RMS_DENSITY, RMS_NU_TILDE, LIFT, DRAG
History output group(s): ITER, RMS_RES, AERO_COEFF
Convergence field(s): RMS_DENSITY
Warning: No (valid) fields chosen for time convergence monitoring. Time convergence monitoring inactive.
Volume output fields: COORDINATES, SOLUTION, PRIMITIVE

------------------- Geometry Preprocessing ( Zone 0 ) -------------------
Two dimensional problem.
13937 grid points before partitioning.
22842 volume elements before partitioning.
2 surface markers.
192 boundary elements in index 0 (Marker = AIRFOIL).
40 boundary elements in index 1 (Marker = FARFIELD).
Executing the partitioning functions.
Building the graph adjacency structure.
Calling ParMETIS... graph partitioning complete (831 edge cuts).
Distributing ParMETIS coloring.
Rebalancing vertices.
Rebalancing volume element connectivity.
Rebalancing markers and surface elements.
14875 vertices including ghost points. 
23674 interior elements including halo cells. 
18780 triangles.
4894 quadrilaterals.
Establishing MPI communication patterns.
Setting point connectivity.
Renumbering points (Reverse Cuthill McKee Ordering).
Recomputing point connectivity.
Setting element connectivity.
Checking the numerical grid orientation.
All volume elements are correctly orientend.
All surface elements are correctly orientend.
Identifying edges and vertices.
Setting the control volume structure.
Area of the computational grid: 32209.9.
Searching for the closest normal neighbors to the surfaces.
Storing a mapping from global to local point index.
Compute the surface curvature.
Max K: 174.135. Mean K: 7.83677. Standard deviation K: 23.9884.
Checking for periodicity.
Computing mesh quality statistics for the dual control volumes.
+--------------------------------------------------------------+
|           Mesh Quality Metric|        Minimum|        Maximum|
+--------------------------------------------------------------+
|    Orthogonality Angle (deg.)|        75.1376|         89.999|
|     CV Face Area Aspect Ratio|        1.00375|        3358.52|
|           CV Sub-Volume Ratio|        1.00046|        1215.17|
+--------------------------------------------------------------+
Finding max control volume width.
Communicating number of neighbors.
Wetted area = 2.02187 m.
Area projection in the x-plane = 0.124823 m, y-plane = 0.995873 m.
Max. coordinate in the x-direction = 1 m, y-direction = 0.0620584 m.
Min. coordinate in the x-direction = 0 m, y-direction = -0.0599265 m.
Computing wall distances.

-------------------- Solver Preprocessing ( Zone 0 ) --------------------
WARNING: AoA in the solution file (2.79028 deg.) +
         AoA offset in mesh file (0 deg.) = 2.79028 deg.
WARNING: SU2 will use the dCD/dCL provided in the direct solution file: 0.0173783.
WARNING: SU2 will use the dCMz/dCL provided in the direct solution file: -0.000528741.
Viscous flow: Computing pressure using the ideal gas law
based on the free-stream temperature and a density computed
from the Reynolds number.
Force coefficients computed using free-stream values.

-- Models:
+------------------------------------------------------------------------------+
|          Viscosity Model|        Conductivity Model|              Fluid Model|
+------------------------------------------------------------------------------+
|               SUTHERLAND|          CONSTANT_PRANDTL|             STANDARD_AIR|
+------------------------------------------------------------------------------+
-- Fluid properties:
+------------------------------------------------------------------------------+
|                  Name|    Dim. value|    Ref. value|      Unit|Non-dim. value|
+------------------------------------------------------------------------------+
|        Ref. Viscosity|     1.716e-05|             1|   N.s/m^2|     1.716e-05|
|      Sutherland Temp.|        273.15|             1|         K|        273.15|
|     Sutherland Const.|         110.4|             1|         K|         110.4|
+------------------------------------------------------------------------------+
|        Prandtl (Lam.)|             -|             -|         -|          0.71|
|       Prandtl (Turb.)|             -|             -|         -|           0.9|
+------------------------------------------------------------------------------+
|          Gas Constant|       287.058|             1|  N.m/kg.K|       287.058|
|      Spec. Heat Ratio|             -|             -|         -|           1.4|
+------------------------------------------------------------------------------+
-- Initial and free-stream conditions:
+------------------------------------------------------------------------------+
|                  Name|    Dim. value|    Ref. value|      Unit|Non-dim. value|
+------------------------------------------------------------------------------+
|       Static Pressure|         38515|             1|        Pa|         38515|
|               Density|      0.465631|             1|    kg/m^3|      0.465631|
|           Temperature|        288.15|             1|         K|        288.15|
|          Total Energy|        237984|             1|   m^2/s^2|        237984|
|            Velocity-X|       249.482|             1|       m/s|       249.482|
|            Velocity-Y|       12.1593|             1|       m/s|       12.1593|
|    Velocity Magnitude|       249.778|             1|       m/s|       249.778|
+------------------------------------------------------------------------------+
|             Viscosity|    1.7893e-05|             1|   N.s/m^2|    1.7893e-05|
|          Conductivity|             -|             1|   W/m^2.K|             -|
|     Turb. Kin. Energy|       233.959|             1|   m^2/s^2|       233.959|
|     Spec. Dissipation|        608834|             1|       1/s|        608834|
+------------------------------------------------------------------------------+
|           Mach Number|             -|             -|         -|         0.734|
|       Reynolds Number|             -|             -|         -|       6.5e+06|
+------------------------------------------------------------------------------+
Initialize Jacobian structure (Navier-Stokes). MG level: 0.
Initialize Jacobian structure (SA model).

------------------- Numerics Preprocessing ( Zone 0 ) -------------------

----------------- Integration Preprocessing ( Zone 0 ) ------------------

------------------- Iteration Preprocessing ( Zone 0 ) ------------------
Euler/Navier-Stokes/RANS fluid iteration.

------------------------------ Begin Solver -----------------------------

Simulation Run using the Single-zone Driver
WARNING: SU2 was not compiled for an AVX-capable architecture. Performance could be better,
         see https://su2code.github.io/docs_v7/Build-SU2-Linux-MacOS/#compiler-optimizations
+----------------------------------------------------------------+
|  Inner_Iter|    rms[Rho]|     rms[nu]|          CL|          CD|
+----------------------------------------------------------------+
|           0|   -5.285082|   -6.645311|    0.824021|    0.011963|
|           1|   -5.337210|   -6.744153|    0.824030|    0.011962|
|           2|   -5.392798|   -6.867423|    0.824030|    0.011963|
|           3|   -5.438238|   -7.006933|    0.824026|    0.011964|
|           4|   -5.472443|   -7.139500|    0.824021|    0.011965|
|           5|   -5.494673|   -7.230276|    0.824017|    0.011965|
|           6|   -5.505936|   -7.269450|    0.824014|    0.011965|
|           7|   -5.508911|   -7.278613|    0.824014|    0.011965|
|           8|   -5.506170|   -7.272527|    0.824015|    0.011964|
|           9|   -5.499404|   -7.253334|    0.824018|    0.011965|
|          10|   -5.489713|   -7.224042|    0.824022|    0.011965|
|          11|   -5.478043|   -7.192516|    0.824027|    0.011967|
|          12|   -5.465325|   -7.166900|    0.824034|    0.011969|
|          13|   -5.452379|   -7.152270|    0.824040|    0.011972|
|          14|   -5.439864|   -7.150416|    0.824046|    0.011975|
|          15|   -5.428336|   -7.160415|    0.824052|    0.011978|
|          16|   -5.418322|   -7.178680|    0.824057|    0.011982|
|          17|   -5.410292|   -7.198718|    0.824061|    0.011986|
|          18|   -5.404544|   -7.212086|    0.824063|    0.011990|
|          19|   -5.401079|   -7.212213|    0.824064|    0.011994|
|          20|   -5.399539|   -7.198950|    0.824064|    0.011997|
|          21|   -5.399283|   -7.178296|    0.824063|    0.012001|
|          22|   -5.399553|   -7.157686|    0.824060|    0.012004|
|          23|   -5.399685|   -7.142470|    0.824057|    0.012006|
|          24|   -5.399266|   -7.135332|    0.824054|    0.012009|
|          25|   -5.398184|   -7.136969|    0.824050|    0.012011|
|          26|   -5.396557|   -7.146769|    0.824046|    0.012012|
|          27|   -5.394615|   -7.163182|    0.824042|    0.012014|
|          28|   -5.392584|   -7.183905|    0.824039|    0.012015|
|          29|   -5.390620|   -7.206041|    0.824036|    0.012016|
|          30|   -5.388794|   -7.226450|    0.824033|    0.012017|
|          31|   -5.387103|   -7.242394|    0.824030|    0.012017|
|          32|   -5.385488|   -7.252270|    0.824027|    0.012018|
|          33|   -5.383856|   -7.256009|    0.824025|    0.012018|
|          34|   -5.382099|   -7.254806|    0.824023|    0.012018|
|          35|   -5.380109|   -7.250418|    0.824020|    0.012018|
|          36|   -5.377798|   -7.244497|    0.824018|    0.012018|
|          37|   -5.375109|   -7.238223|    0.824015|    0.012018|
|          38|   -5.372024|   -7.232252|    0.824012|    0.012018|
|          39|   -5.368569|   -7.226818|    0.824009|    0.012018|
|          40|   -5.364800|   -7.221894|    0.824006|    0.012018|
|          41|   -5.360799|   -7.217340|    0.824002|    0.012018|
|          42|   -5.356654|   -7.213027|    0.823998|    0.012018|
|          43|   -5.352448|   -7.208909|    0.823994|    0.012018|
|          44|   -5.348251|   -7.205056|    0.823989|    0.012017|
|          45|   -5.344101|   -7.201639|    0.823984|    0.012017|
|          46|   -5.340011|   -7.198893|    0.823979|    0.012017|
|          47|   -5.335964|   -7.197067|    0.823975|    0.012017|
|          48|   -5.331923|   -7.196374|    0.823970|    0.012016|
|          49|   -5.327837|   -7.196956|    0.823965|    0.012016|
|          50|   -5.323655|   -7.198857|    0.823961|    0.012015|
|          51|   -5.319340|   -7.202023|    0.823957|    0.012015|
|          52|   -5.314875|   -7.206302|    0.823954|    0.012015|
|          53|   -5.310271|   -7.211469|    0.823950|    0.012014|
|          54|   -5.305567|   -7.217251|    0.823948|    0.012013|
|          55|   -5.300828|   -7.223362|    0.823946|    0.012013|
|          56|   -5.296136|   -7.229535|    0.823944|    0.012012|
|          57|   -5.291578|   -7.235547|    0.823943|    0.012012|
|          58|   -5.287239|   -7.241235|    0.823942|    0.012011|
|          59|   -5.283190|   -7.246493|    0.823942|    0.012010|
|          60|   -5.279480|   -7.251263|    0.823942|    0.012010|
|          61|   -5.276137|   -7.255524|    0.823943|    0.012009|
|          62|   -5.273164|   -7.259273|    0.823944|    0.012008|
|          63|   -5.270546|   -7.262528|    0.823945|    0.012007|
|          64|   -5.268249|   -7.265323|    0.823946|    0.012007|
|          65|   -5.266236|   -7.267715|    0.823948|    0.012006|
|          66|   -5.264464|   -7.269792|    0.823950|    0.012005|
|          67|   -5.262898|   -7.271672|    0.823951|    0.012005|
|          68|   -5.261513|   -7.273490|    0.823953|    0.012004|
|          69|   -5.260292|   -7.275386|    0.823954|    0.012003|
|          70|   -5.259233|   -7.277481|    0.823956|    0.012003|
|          71|   -5.258339|   -7.279862|    0.823958|    0.012002|
|          72|   -5.257620|   -7.282564|    0.823959|    0.012002|
|          73|   -5.257089|   -7.285565|    0.823961|    0.012001|
|          74|   -5.256756|   -7.288790|    0.823962|    0.012001|
|          75|   -5.256628|   -7.292125|    0.823963|    0.012000|
|          76|   -5.256708|   -7.295439|    0.823965|    0.012000|
|          77|   -5.256995|   -7.298603|    0.823966|    0.011999|
|          78|   -5.257484|   -7.301516|    0.823967|    0.011999|
|          79|   -5.258169|   -7.304116|    0.823968|    0.011999|
|          80|   -5.259043|   -7.306391|    0.823969|    0.011998|
|          81|   -5.260100|   -7.308375|    0.823970|    0.011998|
|          82|   -5.261329|   -7.310136|    0.823970|    0.011998|
|          83|   -5.262723|   -7.311768|    0.823971|    0.011998|
|          84|   -5.264268|   -7.313370|    0.823972|    0.011997|
|          85|   -5.265946|   -7.315034|    0.823972|    0.011997|
|          86|   -5.267734|   -7.316839|    0.823973|    0.011997|
|          87|   -5.269605|   -7.318842|    0.823973|    0.011997|
|          88|   -5.271527|   -7.321080|    0.823974|    0.011997|
|          89|   -5.273464|   -7.323575|    0.823974|    0.011996|
|          90|   -5.275384|   -7.326331|    0.823974|    0.011996|
|          91|   -5.277255|   -7.329348|    0.823975|    0.011996|
|          92|   -5.279054|   -7.332618|    0.823975|    0.011996|
|          93|   -5.280769|   -7.336137|    0.823976|    0.011996|
|          94|   -5.282397|   -7.339901|    0.823976|    0.011996|
|          95|   -5.283949|   -7.343911|    0.823977|    0.011996|
|          96|   -5.285447|   -7.348174|    0.823977|    0.011996|
|          97|   -5.286925|   -7.352696|    0.823978|    0.011996|
|          98|   -5.288420|   -7.357487|    0.823979|    0.011996|
|          99|   -5.289978|   -7.362551|    0.823980|    0.011996|
|         100|   -5.291641|   -7.367892|    0.823981|    0.011997|
|         101|   -5.293451|   -7.373509|    0.823982|    0.011998|
+-----------------------------------------------------------------------+
|Fixed CL Mode                           |Value                         |
+-----------------------------------------------------------------------+
|Current CL                              |0.823982                      |
|Target CL                               |0.824                         |
|Previous AOA                            |2.79028                       |
|Changed AoA by                          |9.52726e-05                   |
+-----------------------------------------------------------------------+
+----------------------------------------------------------------+
|  Inner_Iter|    rms[Rho]|     rms[nu]|          CL|          CD|
+----------------------------------------------------------------+
|         102|   -4.213316|   -7.376773|    0.823983|    0.011999|
|         103|   -4.596632|   -7.384321|    0.823985|    0.011999|
|         104|   -4.841057|   -7.391070|    0.823986|    0.011999|
|         105|   -4.917940|   -7.397839|    0.823988|    0.012000|
|         106|   -4.963449|   -7.404741|    0.823990|    0.012000|
|         107|   -5.017266|   -7.411781|    0.823991|    0.012001|
|         108|   -5.076836|   -7.418939|    0.823993|    0.012001|
|         109|   -5.128716|   -7.426186|    0.823994|    0.012002|
|         110|   -5.163298|   -7.433493|    0.823996|    0.012003|
|         111|   -5.182283|   -7.440828|    0.823998|    0.012003|
|         112|   -5.192204|   -7.448165|    0.823999|    0.012004|
|         113|   -5.197489|   -7.455481|    0.824000|    0.012005|
|         114|   -5.200402|   -7.462754|    0.824002|    0.012005|
|         115|   -5.202808|   -7.469964|    0.824003|    0.012006|
|         116|   -5.206435|   -7.477087|    0.824004|    0.012007|
|         117|   -5.212220|   -7.484100|    0.824005|    0.012008|
|         118|   -5.219916|   -7.490979|    0.824005|    0.012008|
|         119|   -5.228373|   -7.497706|    0.824006|    0.012009|
|         120|   -5.236236|   -7.504262|    0.824007|    0.012010|
|         121|   -5.242644|   -7.510636|    0.824007|    0.012011|
|         122|   -5.247498|   -7.516817|    0.824007|    0.012011|
|         123|   -5.251210|   -7.522798|    0.824007|    0.012012|
|         124|   -5.254254|   -7.528577|    0.824007|    0.012013|
|         125|   -5.256864|   -7.534154|    0.824007|    0.012013|
|         126|   -5.258995|   -7.539532|    0.824007|    0.012014|
|         127|   -5.260444|   -7.544716|    0.824007|    0.012014|
|         128|   -5.261011|   -7.549709|    0.824007|    0.012015|
|         129|   -5.260577|   -7.554514|    0.824007|    0.012015|
|         130|   -5.259142|   -7.559136|    0.824006|    0.012016|
|         131|   -5.256815|   -7.563576|    0.824006|    0.012017|
|         132|   -5.253791|   -7.567834|    0.824006|    0.012017|
|         133|   -5.250326|   -7.571911|    0.824006|    0.012018|
|         134|   -5.246686|   -7.575803|    0.824006|    0.012018|
|         135|   -5.243104|   -7.579507|    0.824006|    0.012019|
|         136|   -5.239748|   -7.583018|    0.824006|    0.012019|
|         137|   -5.236704|   -7.586331|    0.824006|    0.012020|
|         138|   -5.233986|   -7.589441|    0.824006|    0.012020|
|         139|   -5.231548|   -7.592336|    0.824006|    0.012021|
|         140|   -5.229315|   -7.595011|    0.824007|    0.012021|
|         141|   -5.227202|   -7.597458|    0.824007|    0.012022|
|         142|   -5.225143|   -7.599670|    0.824007|    0.012023|
|         143|   -5.223102|   -7.601644|    0.824007|    0.012023|
|         144|   -5.221084|   -7.603380|    0.824008|    0.012024|
|         145|   -5.219128|   -7.604881|    0.824008|    0.012024|
|         146|   -5.217300|   -7.606157|    0.824008|    0.012025|
|         147|   -5.215668|   -7.607226|    0.824009|    0.012025|
|         148|   -5.214292|   -7.608113|    0.824009|    0.012026|
|         149|   -5.213208|   -7.608849|    0.824009|    0.012026|
|         150|   -5.212426|   -7.609473|    0.824009|    0.012027|
|         151|   -5.211928|   -7.610028|    0.824010|    0.012027|
|         152|   -5.211678|   -7.610562|    0.824010|    0.012028|
|         153|   -5.211630|   -7.611122|    0.824010|    0.012028|
|         154|   -5.211736|   -7.611758|    0.824010|    0.012028|
|         155|   -5.211954|   -7.612516|    0.824010|    0.012029|
|         156|   -5.212252|   -7.613434|    0.824010|    0.012029|
|         157|   -5.212609|   -7.614548|    0.824010|    0.012029|
|         158|   -5.213015|   -7.615883|    0.824010|    0.012030|
|         159|   -5.213468|   -7.617451|    0.824010|    0.012030|
|         160|   -5.213971|   -7.619256|    0.824010|    0.012030|
|         161|   -5.214530|   -7.621297|    0.824010|    0.012030|
|         162|   -5.215152|   -7.623558|    0.824009|    0.012030|
|         163|   -5.215841|   -7.626017|    0.824009|    0.012031|
|         164|   -5.216603|   -7.628643|    0.824009|    0.012031|
|         165|   -5.217442|   -7.631397|    0.824009|    0.012031|
|         166|   -5.218362|   -7.634241|    0.824009|    0.012031|
|         167|   -5.219366|   -7.637132|    0.824009|    0.012031|
|         168|   -5.220457|   -7.640029|    0.824009|    0.012031|
|         169|   -5.221636|   -7.642889|    0.824009|    0.012031|
|         170|   -5.222905|   -7.645679|    0.824009|    0.012030|
|         171|   -5.224259|   -7.648366|    0.824009|    0.012030|
|         172|   -5.225693|   -7.650926|    0.824009|    0.012030|
|         173|   -5.227198|   -7.653339|    0.824009|    0.012030|
|         174|   -5.228758|   -7.655595|    0.824009|    0.012030|
|         175|   -5.230355|   -7.657685|    0.824009|    0.012030|
|         176|   -5.231966|   -7.659607|    0.824009|    0.012030|
|         177|   -5.233565|   -7.661362|    0.824009|    0.012029|
|         178|   -5.235124|   -7.662953|    0.824009|    0.012029|
|         179|   -5.236614|   -7.664389|    0.824009|    0.012029|
|         180|   -5.238006|   -7.665675|    0.824009|    0.012029|
|         181|   -5.239275|   -7.666814|    0.824009|    0.012028|
|         182|   -5.240401|   -7.667808|    0.824010|    0.012028|
|         183|   -5.241368|   -7.668666|    0.824010|    0.012028|
|         184|   -5.242173|   -7.669392|    0.824010|    0.012027|
|         185|   -5.242818|   -7.669989|    0.824010|    0.012027|
|         186|   -5.243320|   -7.670456|    0.824010|    0.012027|
|         187|   -5.243703|   -7.670794|    0.824010|    0.012026|
|         188|   -5.244006|   -7.671004|    0.824010|    0.012026|
|         189|   -5.244272|   -7.671086|    0.824010|    0.012026|
|         190|   -5.244558|   -7.671041|    0.824010|    0.012025|
|         191|   -5.244925|   -7.670875|    0.824010|    0.012025|
|         192|   -5.245437|   -7.670599|    0.824010|    0.012025|
|         193|   -5.246164|   -7.670219|    0.824010|    0.012024|
|         194|   -5.247172|   -7.669745|    0.824010|    0.012024|
|         195|   -5.248530|   -7.669192|    0.824010|    0.012023|
|         196|   -5.250299|   -7.668568|    0.824010|    0.012023|
|         197|   -5.252537|   -7.667886|    0.824010|    0.012022|
|         198|   -5.255296|   -7.667160|    0.824011|    0.012022|
|         199|   -5.258619|   -7.666406|    0.824011|    0.012022|
|         200|   -5.262539|   -7.665638|    0.824011|    0.012021|
|         201|   -5.267080|   -7.664879|    0.824011|    0.012020|
+-----------------------------------------------------------------------+
|Fixed CL Mode                           |Value                         |
+-----------------------------------------------------------------------+
|Current CL                              |0.824011                      |
|Target CL                               |0.824                         |
|Previous AOA                            |2.79038                       |
|Changed AoA by                          |-5.30633e-05                  |
+-----------------------------------------------------------------------+
+----------------------------------------------------------------+
|  Inner_Iter|    rms[Rho]|     rms[nu]|          CL|          CD|
+----------------------------------------------------------------+
|         202|   -4.463660|   -7.660530|    0.824011|    0.012020|
|         203|   -4.826975|   -7.661565|    0.824011|    0.012019|
|         204|   -5.022754|   -7.661411|    0.824011|    0.012019|
|         205|   -5.072971|   -7.661062|    0.824011|    0.012018|
|         206|   -5.105191|   -7.660677|    0.824011|    0.012018|
|         207|   -5.145836|   -7.660304|    0.824011|    0.012018|
|         208|   -5.191382|   -7.659969|    0.824012|    0.012017|
|         209|   -5.232973|   -7.659686|    0.824012|    0.012017|
|         210|   -5.265054|   -7.659465|    0.824012|    0.012016|
|         211|   -5.287991|   -7.659310|    0.824013|    0.012016|
|         212|   -5.304602|   -7.659208|    0.824013|    0.012016|
|         213|   -5.316980|   -7.659129|    0.824013|    0.012015|
|         214|   -5.326383|   -7.659078|    0.824014|    0.012015|
|         215|   -5.334032|   -7.659062|    0.824014|    0.012015|
|         216|   -5.341189|   -7.659087|    0.824015|    0.012015|
|         217|   -5.348694|   -7.659163|    0.824015|    0.012014|
|         218|   -5.356644|   -7.659274|    0.824016|    0.012014|
|         219|   -5.364510|   -7.659416|    0.824016|    0.012014|
|         220|   -5.371577|   -7.659589|    0.824017|    0.012014|
|         221|   -5.377379|   -7.659792|    0.824017|    0.012014|
|         222|   -5.381876|   -7.660019|    0.824018|    0.012014|
|         223|   -5.385336|   -7.660269|    0.824019|    0.012014|
|         224|   -5.388099|   -7.660540|    0.824019|    0.012014|
|         225|   -5.390405|   -7.660829|    0.824020|    0.012014|
|         226|   -5.392375|   -7.661136|    0.824021|    0.012014|
|         227|   -5.394063|   -7.661462|    0.824022|    0.012014|
|         228|   -5.395519|   -7.661811|    0.824022|    0.012014|
|         229|   -5.396826|   -7.662170|    0.824023|    0.012014|
|         230|   -5.398093|   -7.662529|    0.824024|    0.012014|
|         231|   -5.399451|   -7.662900|    0.824025|    0.012014|
|         232|   -5.401046|   -7.663291|    0.824025|    0.012014|
|         233|   -5.403029|   -7.663709|    0.824026|    0.012014|
|         234|   -5.405553|   -7.664160|    0.824027|    0.012014|
|         235|   -5.408749|   -7.664653|    0.824028|    0.012014|
|         236|   -5.412716|   -7.665191|    0.824029|    0.012015|
|         237|   -5.417510|   -7.665770|    0.824029|    0.012015|
|         238|   -5.423140|   -7.666390|    0.824030|    0.012015|
|         239|   -5.429573|   -7.667051|    0.824031|    0.012015|
|         240|   -5.436739|   -7.667756|    0.824032|    0.012016|
|         241|   -5.444548|   -7.668504|    0.824033|    0.012016|
|         242|   -5.452895|   -7.669297|    0.824034|    0.012016|
|         243|   -5.461684|   -7.670135|    0.824034|    0.012017|
|         244|   -5.470833|   -7.671016|    0.824035|    0.012017|
|         245|   -5.480284|   -7.671937|    0.824036|    0.012017|
|         246|   -5.490002|   -7.672899|    0.824037|    0.012017|
|         247|   -5.499966|   -7.673906|    0.824038|    0.012018|
|         248|   -5.510156|   -7.674954|    0.824038|    0.012018|
|         249|   -5.520544|   -7.676041|    0.824039|    0.012018|
|         250|   -5.531078|   -7.677166|    0.824040|    0.012019|
|         251|   -5.541684|   -7.678327|    0.824040|    0.012019|
|         252|   -5.552266|   -7.679526|    0.824041|    0.012019|
|         253|   -5.562710|   -7.680764|    0.824041|    0.012020|
|         254|   -5.572900|   -7.682045|    0.824042|    0.012020|
|         255|   -5.582725|   -7.683374|    0.824042|    0.012020|
|         256|   -5.592090|   -7.684758|    0.824043|    0.012021|
|         257|   -5.600917|   -7.686207|    0.824043|    0.012021|
|         258|   -5.609154|   -7.687733|    0.824043|    0.012021|
|         259|   -5.616767|   -7.689352|    0.824043|    0.012022|
|         260|   -5.623740|   -7.691077|    0.824044|    0.012022|
|         261|   -5.630067|   -7.692925|    0.824044|    0.012022|
|         262|   -5.635753|   -7.694912|    0.824044|    0.012022|
|         263|   -5.640807|   -7.697056|    0.824043|    0.012023|
|         264|   -5.645247|   -7.699374|    0.824043|    0.012023|
|         265|   -5.649091|   -7.701879|    0.824043|    0.012023|
|         266|   -5.652367|   -7.704583|    0.824043|    0.012023|
|         267|   -5.655109|   -7.707498|    0.824042|    0.012023|
|         268|   -5.657353|   -7.710626|    0.824042|    0.012024|
|         269|   -5.659145|   -7.713971|    0.824041|    0.012024|
|         270|   -5.660529|   -7.717525|    0.824041|    0.012024|
|         271|   -5.661556|   -7.721280|    0.824040|    0.012024|
|         272|   -5.662273|   -7.725218|    0.824039|    0.012024|
|         273|   -5.662728|   -7.729318|    0.824039|    0.012024|
|         274|   -5.662966|   -7.733553|    0.824038|    0.012024|
|         275|   -5.663032|   -7.737890|    0.824037|    0.012024|
|         276|   -5.662966|   -7.742292|    0.824036|    0.012024|
|         277|   -5.662805|   -7.746720|    0.824036|    0.012024|
|         278|   -5.662586|   -7.751134|    0.824035|    0.012024|
|         279|   -5.662341|   -7.755493|    0.824034|    0.012024|
|         280|   -5.662101|   -7.759760|    0.824033|    0.012024|
|         281|   -5.661894|   -7.763899|    0.824033|    0.012024|
|         282|   -5.661743|   -7.767884|    0.824032|    0.012024|
|         283|   -5.661672|   -7.771694|    0.824031|    0.012024|
|         284|   -5.661698|   -7.775318|    0.824031|    0.012024|
|         285|   -5.661834|   -7.778756|    0.824030|    0.012024|
|         286|   -5.662091|   -7.782013|    0.824030|    0.012023|
|         287|   -5.662479|   -7.785102|    0.824029|    0.012023|
|         288|   -5.663001|   -7.788046|    0.824029|    0.012023|
|         289|   -5.663657|   -7.790874|    0.824028|    0.012023|
|         290|   -5.664446|   -7.793621|    0.824028|    0.012023|
|         291|   -5.665363|   -7.796326|    0.824027|    0.012023|
|         292|   -5.666400|   -7.799031|    0.824027|    0.012022|
|         293|   -5.667548|   -7.801776|    0.824027|    0.012022|
|         294|   -5.668798|   -7.804600|    0.824026|    0.012022|
|         295|   -5.670138|   -7.807538|    0.824026|    0.012022|
|         296|   -5.671556|   -7.810622|    0.824026|    0.012022|
|         297|   -5.673043|   -7.813877|    0.824026|    0.012021|
|         298|   -5.674587|   -7.817323|    0.824026|    0.012021|
|         299|   -5.676181|   -7.820975|    0.824026|    0.012021|
|         300|   -5.677816|   -7.824838|    0.824026|    0.012021|
|         301|   -5.679489|   -7.828915|    0.824026|    0.012019|
+-----------------------------------------------------------------------+
|Fixed CL Mode                           |Value                         |
+-----------------------------------------------------------------------+
|Current CL                              |0.824026                      |
|Target CL                               |0.824                         |
|Previous AOA                            |2.79033                       |
|Changed AoA by                          |-0.000129033                  |
+-----------------------------------------------------------------------+
+----------------------------------------------------------------+
|  Inner_Iter|    rms[Rho]|     rms[nu]|          CL|          CD|
+----------------------------------------------------------------+
|         302|   -4.082519|   -7.793116|    0.824026|    0.012018|
|         303|   -4.466094|   -7.816565|    0.824026|    0.012018|
|         304|   -4.707650|   -7.827034|    0.824026|    0.012018|
|         305|   -4.784857|   -7.835000|    0.824026|    0.012018|
|         306|   -4.837397|   -7.842131|    0.824026|    0.012017|
|         307|   -4.905482|   -7.848808|    0.824026|    0.012017|
|         308|   -4.989167|   -7.855158|    0.824027|    0.012017|
|         309|   -5.075734|   -7.861258|    0.824027|    0.012017|
|         310|   -5.149456|   -7.867151|    0.824027|    0.012017|
|         311|   -5.202956|   -7.872841|    0.824027|    0.012016|
|         312|   -5.238228|   -7.878333|    0.824028|    0.012016|
|         313|   -5.259031|   -7.883668|    0.824028|    0.012016|
|         314|   -5.268911|   -7.888909|    0.824028|    0.012016|
|         315|   -5.273129|   -7.894097|    0.824028|    0.012015|
|         316|   -5.277673|   -7.899238|    0.824029|    0.012015|
|         317|   -5.286611|   -7.904313|    0.824029|    0.012015|
|         318|   -5.300923|   -7.909306|    0.824029|    0.012015|
|         319|   -5.319017|   -7.914217|    0.824030|    0.012015|
|         320|   -5.338143|   -7.919063|    0.824030|    0.012015|
|         321|   -5.356057|   -7.923856|    0.824031|    0.012014|
|         322|   -5.372087|   -7.928597|    0.824031|    0.012014|
|         323|   -5.386982|   -7.933278|    0.824031|    0.012014|
|         324|   -5.401887|   -7.937886|    0.824032|    0.012014|
|         325|   -5.417431|   -7.942411|    0.824032|    0.012014|
|         326|   -5.433453|   -7.946852|    0.824033|    0.012014|
|         327|   -5.449242|   -7.951219|    0.824033|    0.012014|
|         328|   -5.463930|   -7.955531|    0.824033|    0.012014|
|         329|   -5.476788|   -7.959808|    0.824034|    0.012014|
|         330|   -5.487382|   -7.964075|    0.824034|    0.012014|
|         331|   -5.495627|   -7.968354|    0.824035|    0.012014|
|         332|   -5.501817|   -7.972666|    0.824035|    0.012014|
|         333|   -5.506579|   -7.977029|    0.824036|    0.012014|
|         334|   -5.510740|   -7.981449|    0.824036|    0.012014|
|         335|   -5.515119|   -7.985924|    0.824036|    0.012014|
|         336|   -5.520354|   -7.990447|    0.824037|    0.012014|
|         337|   -5.526783|   -7.995004|    0.824037|    0.012014|
|         338|   -5.534414|   -7.999574|    0.824038|    0.012014|
|         339|   -5.542942|   -8.004136|    0.824038|    0.012014|
|         340|   -5.551815|   -8.008664|    0.824038|    0.012014|
|         341|   -5.560336|   -8.013133|    0.824039|    0.012014|
|         342|   -5.567810|   -8.017518|    0.824039|    0.012014|
|         343|   -5.573725|   -8.021798|    0.824039|    0.012014|
|         344|   -5.577889|   -8.025948|    0.824040|    0.012015|
|         345|   -5.580482|   -8.029949|    0.824040|    0.012015|
|         346|   -5.581978|   -8.033782|    0.824040|    0.012015|
|         347|   -5.582990|   -8.037425|    0.824040|    0.012015|
|         348|   -5.584099|   -8.040859|    0.824040|    0.012015|
|         349|   -5.585732|   -8.044068|    0.824041|    0.012015|
|         350|   -5.588106|   -8.047037|    0.824041|    0.012016|
|         351|   -5.591228|   -8.049752|    0.824041|    0.012016|
|         352|   -5.594948|   -8.052201|    0.824041|    0.012016|
|         353|   -5.599026|   -8.054379|    0.824040|    0.012016|
|         354|   -5.603205|   -8.056289|    0.824040|    0.012016|
|         355|   -5.607274|   -8.057932|    0.824040|    0.012016|
|         356|   -5.611106|   -8.059323|    0.824040|    0.012017|
|         357|   -5.614676|   -8.060483|    0.824039|    0.012017|
|         358|   -5.618043|   -8.061441|    0.824039|    0.012017|
|         359|   -5.621325|   -8.062237|    0.824038|    0.012017|
|         360|   -5.624661|   -8.062920|    0.824038|    0.012017|
|         361|   -5.628182|   -8.063543|    0.824037|    0.012018|
|         362|   -5.631992|   -8.064162|    0.824037|    0.012018|
|         363|   -5.636158|   -8.064838|    0.824036|    0.012018|
|         364|   -5.640716|   -8.065633|    0.824035|    0.012018|
|         365|   -5.645674|   -8.066606|    0.824034|    0.012018|
|         366|   -5.651026|   -8.067817|    0.824033|    0.012018|
|         367|   -5.656759|   -8.069320|    0.824033|    0.012018|
|         368|   -5.662857|   -8.071161|    0.824032|    0.012019|
|         369|   -5.669308|   -8.073380|    0.824031|    0.012019|
|         370|   -5.676102|   -8.076007|    0.824030|    0.012019|
|         371|   -5.683227|   -8.079065|    0.824029|    0.012019|
|         372|   -5.690667|   -8.082561|    0.824028|    0.012019|
|         373|   -5.698401|   -8.086492|    0.824027|    0.012019|
|         374|   -5.706398|   -8.090837|    0.824026|    0.012019|
|         375|   -5.714617|   -8.095565|    0.824025|    0.012019|
|         376|   -5.723010|   -8.100624|    0.824024|    0.012019|
|         377|   -5.731516|   -8.105952|    0.824023|    0.012019|
|         378|   -5.740069|   -8.111471|    0.824022|    0.012019|
|         379|   -5.748595|   -8.117095|    0.824021|    0.012019|
|         380|   -5.757016|   -8.122730|    0.824020|    0.012020|
|         381|   -5.765250|   -8.128274|    0.824019|    0.012020|
|         382|   -5.773216|   -8.133625|    0.824018|    0.012020|
|         383|   -5.780831|   -8.138685|    0.824018|    0.012020|
|         384|   -5.788018|   -8.143363|    0.824017|    0.012020|
|         385|   -5.794703|   -8.147583|    0.824016|    0.012020|
|         386|   -5.800824|   -8.151286|    0.824016|    0.012019|
|         387|   -5.806327|   -8.154440|    0.824015|    0.012019|
|         388|   -5.811172|   -8.157036|    0.824015|    0.012019|
|         389|   -5.815336|   -8.159095|    0.824015|    0.012019|
|         390|   -5.818809|   -8.160663|    0.824014|    0.012019|
|         391|   -5.821598|   -8.161812|    0.824014|    0.012019|
|         392|   -5.823723|   -8.162630|    0.824014|    0.012019|
|         393|   -5.825219|   -8.163224|    0.824014|    0.012019|
|         394|   -5.826129|   -8.163707|    0.824014|    0.012019|
|         395|   -5.826505|   -8.164196|    0.824014|    0.012019|
|         396|   -5.826405|   -8.164807|    0.824014|    0.012019|
|         397|   -5.825890|   -8.165653|    0.824014|    0.012019|
|         398|   -5.825020|   -8.166837|    0.824014|    0.012018|
|         399|   -5.823858|   -8.168451|    0.824014|    0.012018|
|         400|   -5.822459|   -8.170574|    0.824014|    0.012018|
|         401|   -5.820879|   -8.173275|    0.824014|    0.012017|
+-----------------------------------------------------------------------+
|Fixed CL Mode                           |Value                         |
+-----------------------------------------------------------------------+
|Current CL                              |0.824014                      |
|Target CL                               |0.824                         |
|Previous AOA                            |2.7902                        |
|Changed AoA by                          |-7.03462e-05                  |
+-----------------------------------------------------------------------+
+----------------------------------------------------------------+
|  Inner_Iter|    rms[Rho]|     rms[nu]|          CL|          CD|
+----------------------------------------------------------------+
|         402|   -4.346008|   -8.121083|    0.824014|    0.012017|
|         403|   -4.729230|   -8.151193|    0.824015|    0.012017|
|         404|   -4.968858|   -8.164204|    0.824015|    0.012017|
|         405|   -5.044096|   -8.174206|    0.824015|    0.012017|
|         406|   -5.095077|   -8.183482|    0.824016|    0.012016|
|         407|   -5.161208|   -8.192577|    0.824016|    0.012016|
|         408|   -5.241968|   -8.201695|    0.824016|    0.012016|
|         409|   -5.324516|   -8.210966|    0.824017|    0.012016|
|         410|   -5.393852|   -8.220464|    0.824017|    0.012016|
|         411|   -5.443693|   -8.230182|    0.824017|    0.012016|
|         412|   -5.476535|   -8.240087|    0.824018|    0.012015|
|         413|   -5.496122|   -8.250189|    0.824018|    0.012015|
|         414|   -5.505693|   -8.260516|    0.824018|    0.012015|
|         415|   -5.509881|   -8.271069|    0.824019|    0.012015|
|         416|   -5.513997|   -8.281772|    0.824019|    0.012015|
|         417|   -5.521697|   -8.292504|    0.824019|    0.012015|
|         418|   -5.533893|   -8.303135|    0.824020|    0.012015|
|         419|   -5.549235|   -8.313562|    0.824020|    0.012014|
|         420|   -5.565437|   -8.323699|    0.824020|    0.012014|
|         421|   -5.580728|   -8.333459|    0.824021|    0.012014|
|         422|   -5.594686|   -8.342732|    0.824021|    0.012014|
|         423|   -5.607988|   -8.351388|    0.824021|    0.012014|
|         424|   -5.621534|   -8.359288|    0.824021|    0.012014|
|         425|   -5.635719|   -8.366310|    0.824022|    0.012014|
|         426|   -5.650254|   -8.372366|    0.824022|    0.012014|
|         427|   -5.664413|   -8.377416|    0.824022|    0.012014|
|         428|   -5.677399|   -8.381446|    0.824022|    0.012014|
|         429|   -5.688619|   -8.384525|    0.824022|    0.012014|
|         430|   -5.697808|   -8.386731|    0.824022|    0.012013|
|         431|   -5.705052|   -8.388179|    0.824022|    0.012013|
|         432|   -5.710767|   -8.388977|    0.824023|    0.012013|
|         433|   -5.715614|   -8.389238|    0.824023|    0.012013|
|         434|   -5.720363|   -8.389062|    0.824023|    0.012013|
|         435|   -5.725730|   -8.388529|    0.824023|    0.012013|
|         436|   -5.732236|   -8.387704|    0.824023|    0.012013|
|         437|   -5.740132|   -8.386634|    0.824023|    0.012013|
|         438|   -5.749377|   -8.385347|    0.824023|    0.012013|
|         439|   -5.759663|   -8.383864|    0.824023|    0.012013|
|         440|   -5.770466|   -8.382199|    0.824022|    0.012013|
|         441|   -5.781132|   -8.380361|    0.824022|    0.012013|
|         442|   -5.791004|   -8.378357|    0.824022|    0.012013|
|         443|   -5.799568|   -8.376191|    0.824022|    0.012014|
|         444|   -5.806579|   -8.373872|    0.824022|    0.012014|
|         445|   -5.812113|   -8.371403|    0.824022|    0.012014|
|         446|   -5.816522|   -8.368786|    0.824022|    0.012014|
|         447|   -5.820302|   -8.366013|    0.824022|    0.012014|
|         448|   -5.823948|   -8.363073|    0.824022|    0.012014|
|         449|   -5.827830|   -8.359949|    0.824021|    0.012014|
|         450|   -5.832133|   -8.356615|    0.824021|    0.012014|
|         451|   -5.836849|   -8.353046|    0.824021|    0.012014|
|         452|   -5.841815|   -8.349213|    0.824021|    0.012014|
|         453|   -5.846777|   -8.345081|    0.824021|    0.012014|
|         454|   -5.851465|   -8.340629|    0.824020|    0.012015|
|         455|   -5.855649|   -8.335830|    0.824020|    0.012015|
|         456|   -5.859192|   -8.330668|    0.824020|    0.012015|
|         457|   -5.862055|   -8.325137|    0.824020|    0.012015|
|         458|   -5.864295|   -8.319245|    0.824019|    0.012015|
|         459|   -5.866025|   -8.313011|    0.824019|    0.012015|
|         460|   -5.867386|   -8.306470|    0.824019|    0.012015|
|         461|   -5.868514|   -8.299668|    0.824018|    0.012016|
|         462|   -5.869519|   -8.292662|    0.824018|    0.012016|
|         463|   -5.870478|   -8.285520|    0.824017|    0.012016|
|         464|   -5.871440|   -8.278316|    0.824017|    0.012016|
|         465|   -5.872431|   -8.271131|    0.824016|    0.012016|
|         466|   -5.873469|   -8.264047|    0.824016|    0.012016|
|         467|   -5.874568|   -8.257147|    0.824015|    0.012016|
|         468|   -5.875745|   -8.250509|    0.824015|    0.012017|
|         469|   -5.877021|   -8.244209|    0.824014|    0.012017|
|         470|   -5.878425|   -8.238313|    0.824014|    0.012017|
|         471|   -5.879983|   -8.232881|    0.824013|    0.012017|
|         472|   -5.881724|   -8.227962|    0.824013|    0.012017|
|         473|   -5.883673|   -8.223594|    0.824012|    0.012017|
|         474|   -5.885853|   -8.219801|    0.824012|    0.012017|
|         475|   -5.888279|   -8.216599|    0.824011|    0.012017|
|         476|   -5.890966|   -8.213988|    0.824010|    0.012018|
|         477|   -5.893923|   -8.211957|    0.824010|    0.012018|
|         478|   -5.897157|   -8.210483|    0.824009|    0.012018|
|         479|   -5.900674|   -8.209529|    0.824009|    0.012018|
|         480|   -5.904476|   -8.209047|    0.824008|    0.012018|
|         481|   -5.908566|   -8.208981|    0.824008|    0.012018|
|         482|   -5.912944|   -8.209261|    0.824007|    0.012018|
|         483|   -5.917607|   -8.209814|    0.824007|    0.012018|
|         484|   -5.922553|   -8.210559|    0.824006|    0.012018|
|         485|   -5.927774|   -8.211414|    0.824006|    0.012018|
|         486|   -5.933263|   -8.212295|    0.824006|    0.012018|
|         487|   -5.939009|   -8.213125|    0.824005|    0.012018|
|         488|   -5.944998|   -8.213832|    0.824005|    0.012018|
|         489|   -5.951213|   -8.214355|    0.824004|    0.012018|
|         490|   -5.957635|   -8.214648|    0.824004|    0.012018|
|         491|   -5.964241|   -8.214679|    0.824004|    0.012018|
|         492|   -5.971003|   -8.214432|    0.824004|    0.012018|
|         493|   -5.977892|   -8.213912|    0.824003|    0.012018|
|         494|   -5.984872|   -8.213137|    0.824003|    0.012018|
|         495|   -5.991905|   -8.212141|    0.824003|    0.012018|
|         496|   -5.998949|   -8.210969|    0.824003|    0.012018|
|         497|   -6.005956|   -8.209675|    0.824003|    0.012018|
|         498|   -6.012876|   -8.208318|    0.824003|    0.012018|
|         499|   -6.019657|   -8.206961|    0.824003|    0.012018|
|         500|   -6.026242|   -8.205663|    0.824003|    0.012018|
|         501|   -6.032576|   -8.204480|    0.824003|    0.012017|
+-----------------------------------------------------------------------+
|Fixed CL Mode                           |Value                         |
+-----------------------------------------------------------------------+
|Current CL                              |0.824003                      |
|Target CL                               |0.824                         |
|Previous AOA                            |2.79013                       |
|Changed AoA by                          |-1.27979e-05                  |
+-----------------------------------------------------------------------+
+----------------------------------------------------------------+
|  Inner_Iter|    rms[Rho]|     rms[nu]|          CL|          CD|
+----------------------------------------------------------------+
|         502|   -5.084129|   -8.201234|    0.824003|    0.012017|
|         503|   -5.457176|   -8.201612|    0.824003|    0.012017|
|         504|   -5.671619|   -8.201387|    0.824003|    0.012017|
|         505|   -5.730692|   -8.201268|    0.824003|    0.012017|
|         506|   -5.768446|   -8.201368|    0.824003|    0.012017|
|         507|   -5.815762|   -8.201711|    0.824003|    0.012017|
|         508|   -5.869306|   -8.202299|    0.824003|    0.012017|
|         509|   -5.918431|   -8.203124|    0.824003|    0.012017|
|         510|   -5.955477|   -8.204173|    0.824003|    0.012016|
|         511|   -5.980256|   -8.205424|    0.824003|    0.012016|
|         512|   -5.996159|   -8.206852|    0.824003|    0.012016|
|         513|   -6.005820|   -8.208430|    0.824003|    0.012016|
|         514|   -6.010920|   -8.210129|    0.824003|    0.012016|
|         515|   -6.013248|   -8.211920|    0.824003|    0.012016|
|         516|   -6.014713|   -8.213773|    0.824003|    0.012016|
|         517|   -6.016650|   -8.215661|    0.824004|    0.012015|
|         518|   -6.019435|   -8.217559|    0.824004|    0.012015|
|         519|   -6.022697|   -8.219447|    0.824004|    0.012015|
|         520|   -6.025847|   -8.221313|    0.824004|    0.012015|
|         521|   -6.028542|   -8.223148|    0.824004|    0.012015|
|         522|   -6.030824|   -8.224946|    0.824004|    0.012015|
|         523|   -6.032948|   -8.226709|    0.824004|    0.012015|
|         524|   -6.035134|   -8.228438|    0.824004|    0.012015|
|         525|   -6.037428|   -8.230141|    0.824004|    0.012015|
|         526|   -6.039718|   -8.231829|    0.824004|    0.012014|
|         527|   -6.041835|   -8.233515|    0.824004|    0.012014|
|         528|   -6.043653|   -8.235212|    0.824004|    0.012014|
|         529|   -6.045136|   -8.236935|    0.824004|    0.012014|
|         530|   -6.046334|   -8.238699|    0.824004|    0.012014|
|         531|   -6.047366|   -8.240514|    0.824004|    0.012014|
|         532|   -6.048391|   -8.242393|    0.824004|    0.012014|
|         533|   -6.049589|   -8.244343|    0.824004|    0.012014|
|         534|   -6.051132|   -8.246368|    0.824004|    0.012014|
|         535|   -6.053157|   -8.248469|    0.824004|    0.012014|
|         536|   -6.055748|   -8.250647|    0.824004|    0.012014|
|         537|   -6.058930|   -8.252895|    0.824004|    0.012014|
|         538|   -6.062671|   -8.255209|    0.824004|    0.012014|
|         539|   -6.066897|   -8.257579|    0.824004|    0.012014|
|         540|   -6.071506|   -8.259997|    0.824004|    0.012014|
|         541|   -6.076388|   -8.262453|    0.824004|    0.012014|
|         542|   -6.081445|   -8.264941|    0.824004|    0.012014|
|         543|   -6.086606|   -8.267450|    0.824004|    0.012014|
|         544|   -6.091834|   -8.269975|    0.824004|    0.012014|
|         545|   -6.097131|   -8.272510|    0.824004|    0.012014|
|         546|   -6.102526|   -8.275049|    0.824004|    0.012014|
|         547|   -6.108059|   -8.277588|    0.824004|    0.012014|
|         548|   -6.113767|   -8.280125|    0.824004|    0.012014|
|         549|   -6.119670|   -8.282656|    0.824004|    0.012014|
|         550|   -6.125757|   -8.285176|    0.824004|    0.012014|
|         551|   -6.131991|   -8.287682|    0.824004|    0.012014|
|         552|   -6.138310|   -8.290168|    0.824004|    0.012014|
|         553|   -6.144635|   -8.292626|    0.824004|    0.012014|
|         554|   -6.150882|   -8.295046|    0.824004|    0.012014|
|         555|   -6.156972|   -8.297414|    0.824004|    0.012014|
|         556|   -6.162834|   -8.299714|    0.824004|    0.012014|
|         557|   -6.168412|   -8.301928|    0.824003|    0.012015|
|         558|   -6.173663|   -8.304036|    0.824003|    0.012015|
|         559|   -6.178556|   -8.306019|    0.824003|    0.012015|
|         560|   -6.183068|   -8.307854|    0.824003|    0.012015|
|         561|   -6.187182|   -8.309521|    0.824003|    0.012015|
|         562|   -6.190883|   -8.311003|    0.824003|    0.012015|
|         563|   -6.194159|   -8.312282|    0.824003|    0.012015|
|         564|   -6.197001|   -8.313348|    0.824003|    0.012015|
|         565|   -6.199407|   -8.314194|    0.824003|    0.012016|
|         566|   -6.201379|   -8.314819|    0.824003|    0.012016|
|         567|   -6.202926|   -8.315228|    0.824003|    0.012016|
|         568|   -6.204067|   -8.315433|    0.824003|    0.012016|
|         569|   -6.204827|   -8.315451|    0.824003|    0.012016|
|         570|   -6.205240|   -8.315304|    0.824003|    0.012016|
|         571|   -6.205341|   -8.315020|    0.824003|    0.012016|
|         572|   -6.205174|   -8.314628|    0.824003|    0.012017|
|         573|   -6.204781|   -8.314160|    0.824003|    0.012017|
|         574|   -6.204210|   -8.313650|    0.824003|    0.012017|
|         575|   -6.203505|   -8.313130|    0.824002|    0.012017|
|         576|   -6.202711|   -8.312629|    0.824002|    0.012017|
|         577|   -6.201874|   -8.312176|    0.824002|    0.012017|
|         578|   -6.201036|   -8.311794|    0.824002|    0.012017|
|         579|   -6.200238|   -8.311500|    0.824002|    0.012018|
|         580|   -6.199519|   -8.311309|    0.824002|    0.012018|
|         581|   -6.198915|   -8.311229|    0.824001|    0.012018|
|         582|   -6.198461|   -8.311261|    0.824001|    0.012018|
|         583|   -6.198187|   -8.311402|    0.824001|    0.012018|
|         584|   -6.198124|   -8.311644|    0.824001|    0.012018|
|         585|   -6.198296|   -8.311974|    0.824001|    0.012018|
|         586|   -6.198728|   -8.312375|    0.824001|    0.012018|
|         587|   -6.199439|   -8.312827|    0.824000|    0.012018|
|         588|   -6.200450|   -8.313307|    0.824000|    0.012018|
|         589|   -6.201774|   -8.313793|    0.824000|    0.012019|
|         590|   -6.203424|   -8.314260|    0.824000|    0.012019|
|         591|   -6.205411|   -8.314686|    0.824000|    0.012019|
|         592|   -6.207742|   -8.315051|    0.824000|    0.012019|
|         593|   -6.210419|   -8.315338|    0.823999|    0.012019|
|         594|   -6.213445|   -8.315531|    0.823999|    0.012019|
|         595|   -6.216815|   -8.315622|    0.823999|    0.012019|
|         596|   -6.220525|   -8.315602|    0.823999|    0.012019|
|         597|   -6.224564|   -8.315473|    0.823999|    0.012019|
|         598|   -6.228916|   -8.315235|    0.823999|    0.012019|
|         599|   -6.233564|   -8.314897|    0.823999|    0.012019|
|         600|   -6.238483|   -8.314468|    0.823999|    0.012019|
|         601|   -6.243644|   -8.313962|    0.823998|    0.012019|
+-----------------------------------------------------------------------+
|Fixed CL Mode                           |Value                         |
+-----------------------------------------------------------------------+
|Current CL                              |0.823998                      |
|Target CL                               |0.824                         |
|Previous AOA                            |2.79011                       |
|Changed AoA by                          |7.02517e-06                   |
+-----------------------------------------------------------------------+
+----------------------------------------------------------------+
|  Inner_Iter|    rms[Rho]|     rms[nu]|          CL|          CD|
+----------------------------------------------------------------+
|         602|   -5.342616|   -8.312106|    0.823998|    0.012019|
|         603|   -5.708707|   -8.312112|    0.823998|    0.012019|
|         604|   -5.916090|   -8.311659|    0.823998|    0.012019|
|         605|   -5.978799|   -8.311108|    0.823998|    0.012019|
|         606|   -6.020970|   -8.310529|    0.823998|    0.012019|
|         607|   -6.070449|   -8.309956|    0.823998|    0.012019|
|         608|   -6.123705|   -8.309413|    0.823998|    0.012019|
|         609|   -6.170436|   -8.308918|    0.823998|    0.012019|
|         610|   -6.203973|   -8.308485|    0.823998|    0.012019|
|         611|   -6.225318|   -8.308124|    0.823998|    0.012018|
|         612|   -6.238592|   -8.307842|    0.823998|    0.012018|
|         613|   -6.246727|   -8.307646|    0.823998|    0.012018|
|         614|   -6.251447|   -8.307541|    0.823998|    0.012018|
|         615|   -6.254390|   -8.307531|    0.823998|    0.012018|
|         616|   -6.257182|   -8.307620|    0.823998|    0.012018|
|         617|   -6.260853|   -8.307809|    0.823998|    0.012018|
|         618|   -6.265498|   -8.308102|    0.823998|    0.012018|
|         619|   -6.270474|   -8.308501|    0.823998|    0.012018|
|         620|   -6.274931|   -8.309007|    0.823998|    0.012018|
|         621|   -6.278303|   -8.309624|    0.823998|    0.012017|
|         622|   -6.280500|   -8.310354|    0.823998|    0.012017|
|         623|   -6.281768|   -8.311197|    0.823998|    0.012017|
|         624|   -6.282428|   -8.312156|    0.823998|    0.012017|
|         625|   -6.282698|   -8.313230|    0.823998|    0.012017|
|         626|   -6.282667|   -8.314419|    0.823998|    0.012017|
|         627|   -6.282349|   -8.315724|    0.823998|    0.012017|
|         628|   -6.281753|   -8.317143|    0.823998|    0.012017|
|         629|   -6.280905|   -8.318674|    0.823998|    0.012017|
|         630|   -6.279849|   -8.320317|    0.823998|    0.012017|
|         631|   -6.278651|   -8.322067|    0.823998|    0.012016|
|         632|   -6.277390|   -8.323923|    0.823998|    0.012016|
|         633|   -6.276166|   -8.325881|    0.823998|    0.012016|
|         634|   -6.275089|   -8.327939|    0.823998|    0.012016|
|         635|   -6.274267|   -8.330093|    0.823998|    0.012016|
|         636|   -6.273790|   -8.332342|    0.823998|    0.012016|
|         637|   -6.273722|   -8.334684|    0.823998|    0.012016|
|         638|   -6.274096|   -8.337117|    0.823998|    0.012016|
|         639|   -6.274914|   -8.339641|    0.823998|    0.012016|
|         640|   -6.276156|   -8.342257|    0.823998|    0.012016|
|         641|   -6.277789|   -8.344965|    0.823998|    0.012016|
|         642|   -6.279774|   -8.347770|    0.823998|    0.012015|
|         643|   -6.282081|   -8.350674|    0.823998|    0.012015|
|         644|   -6.284694|   -8.353683|    0.823998|    0.012015|
|         645|   -6.287611|   -8.356801|    0.823998|    0.012015|
|         646|   -6.290846|   -8.360035|    0.823999|    0.012015|
|         647|   -6.294415|   -8.363392|    0.823999|    0.012015|
|         648|   -6.298330|   -8.366878|    0.823999|    0.012015|
|         649|   -6.302592|   -8.370500|    0.823999|    0.012015|
|         650|   -6.307184|   -8.374265|    0.823999|    0.012015|
|         651|   -6.312069|   -8.378180|    0.823999|    0.012015|
|         652|   -6.317197|   -8.382248|    0.823999|    0.012015|
|         653|   -6.322506|   -8.386476|    0.824000|    0.012015|
|         654|   -6.327929|   -8.390865|    0.824000|    0.012015|
|         655|   -6.333400|   -8.395417|    0.824000|    0.012015|
|         656|   -6.338858|   -8.400133|    0.824000|    0.012015|
|         657|   -6.344246|   -8.405010|    0.824000|    0.012015|
|         658|   -6.349515|   -8.410046|    0.824000|    0.012015|
|         659|   -6.354618|   -8.415235|    0.824001|    0.012015|
|         660|   -6.359513|   -8.420569|    0.824001|    0.012015|
|         661|   -6.364158|   -8.426040|    0.824001|    0.012015|
|         662|   -6.368513|   -8.431635|    0.824001|    0.012015|
|         663|   -6.372539|   -8.437342|    0.824001|    0.012015|
|         664|   -6.376200|   -8.443144|    0.824002|    0.012016|
|         665|   -6.379462|   -8.449026|    0.824002|    0.012016|
|         666|   -6.382300|   -8.454968|    0.824002|    0.012016|
|         667|   -6.384696|   -8.460950|    0.824002|    0.012016|
|         668|   -6.386639|   -8.466954|    0.824002|    0.012016|
|         669|   -6.388130|   -8.472958|    0.824002|    0.012016|
|         670|   -6.389177|   -8.478940|    0.824003|    0.012016|
|         671|   -6.389796|   -8.484880|    0.824003|    0.012016|
|         672|   -6.390014|   -8.490758|    0.824003|    0.012016|
|         673|   -6.389862|   -8.496555|    0.824003|    0.012016|
|         674|   -6.389376|   -8.502254|    0.824003|    0.012016|
|         675|   -6.388597|   -8.507838|    0.824003|    0.012016|
|         676|   -6.387570|   -8.513295|    0.824003|    0.012017|
|         677|   -6.386341|   -8.518614|    0.824004|    0.012017|
|         678|   -6.384959|   -8.523785|    0.824004|    0.012017|
|         679|   -6.383471|   -8.528802|    0.824004|    0.012017|
|         680|   -6.381926|   -8.533660|    0.824004|    0.012017|
|         681|   -6.380369|   -8.538360|    0.824004|    0.012017|
|         682|   -6.378846|   -8.542902|    0.824004|    0.012017|
|         683|   -6.377399|   -8.547288|    0.824004|    0.012017|
|         684|   -6.376069|   -8.551522|    0.824004|    0.012017|
|         685|   -6.374893|   -8.555611|    0.824004|    0.012017|
|         686|   -6.373904|   -8.559560|    0.824004|    0.012018|
|         687|   -6.373135|   -8.563376|    0.824004|    0.012018|
|         688|   -6.372613|   -8.567065|    0.824004|    0.012018|
|         689|   -6.372362|   -8.570634|    0.824004|    0.012018|
|         690|   -6.372404|   -8.574090|    0.824004|    0.012018|
|         691|   -6.372757|   -8.577437|    0.824004|    0.012018|
|         692|   -6.373436|   -8.580680|    0.824004|    0.012018|
|         693|   -6.374453|   -8.583822|    0.824004|    0.012018|
|         694|   -6.375815|   -8.586867|    0.824004|    0.012018|
|         695|   -6.377528|   -8.589816|    0.824004|    0.012018|
|         696|   -6.379594|   -8.592670|    0.824004|    0.012018|
|         697|   -6.382011|   -8.595429|    0.824003|    0.012018|
|         698|   -6.384773|   -8.598091|    0.824003|    0.012018|
|         699|   -6.387872|   -8.600658|    0.824003|    0.012019|
|         700|   -6.391294|   -8.603126|    0.824003|    0.012019|
|         701|   -6.395022|   -8.605496|    0.824003|    0.012018|
+-----------------------------------------------------------------------+
|Fixed CL Mode                           |Value                         |
+-----------------------------------------------------------------------+
|Current CL                              |0.824003                      |
|Target CL                               |0.824                         |
|Previous AOA                            |2.79012                       |
|Changed AoA by                          |-1.591e-05                    |
+-----------------------------------------------------------------------+
+----------------------------------------------------------------+
|  Inner_Iter|    rms[Rho]|     rms[nu]|          CL|          CD|
+----------------------------------------------------------------+
|         702|   -4.991590|   -8.586717|    0.824003|    0.012018|
|         703|   -5.376257|   -8.599589|    0.824003|    0.012019|
|         704|   -5.621316|   -8.604653|    0.824003|    0.012019|
|         705|   -5.700083|   -8.608173|    0.824003|    0.012019|
|         706|   -5.752217|   -8.611136|    0.824003|    0.012019|
|         707|   -5.818933|   -8.613754|    0.824002|    0.012019|
|         708|   -5.899951|   -8.616070|    0.824002|    0.012019|
|         709|   -5.981690|   -8.618103|    0.824002|    0.012019|
|         710|   -6.048238|   -8.619875|    0.824002|    0.012019|
|         711|   -6.093527|   -8.621400|    0.824002|    0.012019|
|         712|   -6.121291|   -8.622707|    0.824002|    0.012019|
|         713|   -6.136505|   -8.623855|    0.824002|    0.012019|
|         714|   -6.143165|   -8.624906|    0.824002|    0.012019|
|         715|   -6.146014|   -8.625914|    0.824002|    0.012019|
|         716|   -6.149952|   -8.626910|    0.824002|    0.012019|
|         717|   -6.158103|   -8.627905|    0.824001|    0.012019|
|         718|   -6.170934|   -8.628908|    0.824001|    0.012019|
|         719|   -6.186734|   -8.629929|    0.824001|    0.012019|
|         720|   -6.202888|   -8.630979|    0.824001|    0.012019|
|         721|   -6.217359|   -8.632065|    0.824001|    0.012019|
|         722|   -6.229582|   -8.633187|    0.824001|    0.012019|
|         723|   -6.240261|   -8.634338|    0.824001|    0.012018|
|         724|   -6.250457|   -8.635510|    0.824001|    0.012018|
|         725|   -6.260812|   -8.636695|    0.824001|    0.012018|
|         726|   -6.271349|   -8.637890|    0.824001|    0.012018|
|         727|   -6.281662|   -8.639092|    0.824001|    0.012018|
|         728|   -6.291227|   -8.640305|    0.824001|    0.012018|
|         729|   -6.299600|   -8.641531|    0.824001|    0.012018|
|         730|   -6.306510|   -8.642775|    0.824001|    0.012018|
|         731|   -6.311900|   -8.644046|    0.824001|    0.012018|
|         732|   -6.315950|   -8.645350|    0.824001|    0.012018|
|         733|   -6.319068|   -8.646696|    0.824001|    0.012018|
|         734|   -6.321809|   -8.648092|    0.824000|    0.012018|
|         735|   -6.324750|   -8.649548|    0.824000|    0.012018|
|         736|   -6.328361|   -8.651071|    0.824000|    0.012018|
|         737|   -6.332926|   -8.652667|    0.824000|    0.012018|
|         738|   -6.338513|   -8.654339|    0.824000|    0.012018|
|         739|   -6.344985|   -8.656094|    0.824000|    0.012018|
|         740|   -6.352043|   -8.657938|    0.824000|    0.012017|
|         741|   -6.359288|   -8.659876|    0.824001|    0.012017|
|         742|   -6.366317|   -8.661913|    0.824001|    0.012017|
|         743|   -6.372813|   -8.664057|    0.824001|    0.012017|
|         744|   -6.378631|   -8.666314|    0.824001|    0.012017|
|         745|   -6.383826|   -8.668690|    0.824001|    0.012017|
|         746|   -6.388630|   -8.671191|    0.824001|    0.012017|
|         747|   -6.393370|   -8.673822|    0.824001|    0.012017|
|         748|   -6.398382|   -8.676589|    0.824001|    0.012017|
|         749|   -6.403925|   -8.679500|    0.824001|    0.012017|
|         750|   -6.410138|   -8.682562|    0.824001|    0.012017|
|         751|   -6.417026|   -8.685776|    0.824001|    0.012017|
|         752|   -6.424481|   -8.689145|    0.824001|    0.012017|
|         753|   -6.432318|   -8.692671|    0.824001|    0.012017|
|         754|   -6.440319|   -8.696360|    0.824001|    0.012017|
|         755|   -6.448281|   -8.700216|    0.824001|    0.012017|
|         756|   -6.456046|   -8.704246|    0.824001|    0.012016|
|         757|   -6.463517|   -8.708455|    0.824001|    0.012016|
|         758|   -6.470659|   -8.712852|    0.824001|    0.012016|
|         759|   -6.477482|   -8.717445|    0.824001|    0.012016|
|         760|   -6.484021|   -8.722242|    0.824001|    0.012016|
|         761|   -6.490313|   -8.727254|    0.824001|    0.012016|
|         762|   -6.496379|   -8.732489|    0.824001|    0.012016|
|         763|   -6.502219|   -8.737960|    0.824001|    0.012016|
|         764|   -6.507813|   -8.743677|    0.824001|    0.012016|
|         765|   -6.513120|   -8.749652|    0.824001|    0.012016|
|         766|   -6.518096|   -8.755894|    0.824001|    0.012016|
|         767|   -6.522695|   -8.762414|    0.824001|    0.012016|
|         768|   -6.526881|   -8.769220|    0.824001|    0.012016|
|         769|   -6.530627|   -8.776318|    0.824001|    0.012016|
|         770|   -6.533918|   -8.783711|    0.824001|    0.012016|
|         771|   -6.536752|   -8.791399|    0.824001|    0.012016|
|         772|   -6.539133|   -8.799379|    0.824001|    0.012016|
|         773|   -6.541074|   -8.807642|    0.824001|    0.012016|
|         774|   -6.542592|   -8.816174|    0.824001|    0.012016|
|         775|   -6.543712|   -8.824956|    0.824001|    0.012016|
|         776|   -6.544458|   -8.833964|    0.824001|    0.012016|
|         777|   -6.544864|   -8.843169|    0.824001|    0.012016|
|         778|   -6.544965|   -8.852537|    0.824001|    0.012016|
|         779|   -6.544800|   -8.862028|    0.824001|    0.012016|
|         780|   -6.544413|   -8.871600|    0.824001|    0.012016|
|         781|   -6.543847|   -8.881209|    0.824001|    0.012016|
|         782|   -6.543149|   -8.890809|    0.824001|    0.012016|
|         783|   -6.542363|   -8.900355|    0.824001|    0.012016|
|         784|   -6.541534|   -8.909802|    0.824001|    0.012016|
|         785|   -6.540704|   -8.919109|    0.824001|    0.012016|
|         786|   -6.539913|   -8.928238|    0.824002|    0.012016|
|         787|   -6.539198|   -8.937156|    0.824002|    0.012017|
|         788|   -6.538594|   -8.945837|    0.824002|    0.012017|
|         789|   -6.538133|   -8.954258|    0.824002|    0.012017|
|         790|   -6.537842|   -8.962404|    0.824002|    0.012017|
|         791|   -6.537747|   -8.970261|    0.824002|    0.012017|
|         792|   -6.537871|   -8.977821|    0.824002|    0.012017|
|         793|   -6.538233|   -8.985077|    0.824002|    0.012017|
|         794|   -6.538848|   -8.992025|    0.824003|    0.012017|
|         795|   -6.539730|   -8.998660|    0.824003|    0.012017|
|         796|   -6.540890|   -9.004975|    0.824003|    0.012017|
|         797|   -6.542334|   -9.010961|    0.824003|    0.012017|
|         798|   -6.544066|   -9.016607|    0.824003|    0.012017|
|         799|   -6.546087|   -9.021901|    0.824003|    0.012017|
|         800|   -6.548396|   -9.026826|    0.824003|    0.012017|
|         801|   -6.550987|   -9.031365|    0.824004|    0.012017|
+-----------------------------------------------------------------------+
|Fixed CL Mode                           |Value                         |
+-----------------------------------------------------------------------+
|Current CL                              |0.824004                      |
|Target CL                               |0.824                         |
|Previous AOA                            |2.7901                        |
|Changed AoA by                          |-1.68558e-05                  |
+-----------------------------------------------------------------------+
+----------------------------------------------------------------+
|  Inner_Iter|    rms[Rho]|     rms[nu]|          CL|          CD|
+----------------------------------------------------------------+
|         802|   -4.966494|   -8.902252|    0.824004|    0.012017|
|         803|   -5.350241|   -8.963116|    0.824004|    0.012017|
|         804|   -5.593091|   -8.985348|    0.824004|    0.012017|
|         805|   -5.671814|   -8.998854|    0.824004|    0.012017|
|         806|   -5.725383|   -9.009208|    0.824004|    0.012017|
|         807|   -5.794334|   -9.017655|    0.824004|    0.012017|
|         808|   -5.878842|   -9.024461|    0.824004|    0.012017|
|         809|   -5.965955|   -9.029743|    0.824004|    0.012017|
|         810|   -6.039503|   -9.033588|    0.824004|    0.012018|
|         811|   -6.092013|   -9.036040|    0.824005|    0.012018|
|         812|   -6.125879|   -9.037237|    0.824005|    0.012018|
|         813|   -6.145322|   -9.037514|    0.824005|    0.012018|
|         814|   -6.154189|   -9.037297|    0.824005|    0.012018|
|         815|   -6.157847|   -9.036916|    0.824005|    0.012018|
|         816|   -6.162227|   -9.036552|    0.824005|    0.012018|
|         817|   -6.171276|   -9.036271|    0.824005|    0.012018|
|         818|   -6.185843|   -9.036121|    0.824005|    0.012018|
|         819|   -6.204196|   -9.036187|    0.824005|    0.012018|
|         820|   -6.223430|   -9.036556|    0.824005|    0.012018|
|         821|   -6.241156|   -9.037290|    0.824005|    0.012018|
|         822|   -6.256619|   -9.038403|    0.824005|    0.012018|
|         823|   -6.270564|   -9.039857|    0.824005|    0.012018|
|         824|   -6.284189|   -9.041590|    0.824005|    0.012018|
|         825|   -6.298201|   -9.043538|    0.824005|    0.012018|
|         826|   -6.312526|   -9.045644|    0.824005|    0.012018|
|         827|   -6.326545|   -9.047879|    0.824005|    0.012018|
|         828|   -6.339480|   -9.050217|    0.824005|    0.012018|
|         829|   -6.350673|   -9.052645|    0.824005|    0.012018|
|         830|   -6.359724|   -9.055151|    0.824005|    0.012018|
|         831|   -6.366550|   -9.057733|    0.824005|    0.012018|
|         832|   -6.371417|   -9.060369|    0.824005|    0.012018|
|         833|   -6.374913|   -9.063064|    0.824005|    0.012018|
|         834|   -6.377818|   -9.065801|    0.824005|    0.012018|
|         835|   -6.380921|   -9.068574|    0.824005|    0.012018|
|         836|   -6.384847|   -9.071338|    0.824004|    0.012018|
|         837|   -6.389950|   -9.074063|    0.824004|    0.012018|
|         838|   -6.396287|   -9.076717|    0.824004|    0.012018|
|         839|   -6.403631|   -9.079276|    0.824004|    0.012018|
|         840|   -6.411538|   -9.081721|    0.824004|    0.012018|
|         841|   -6.419431|   -9.084040|    0.824004|    0.012018|
|         842|   -6.426733|   -9.086237|    0.824004|    0.012018|
|         843|   -6.433009|   -9.088326|    0.824004|    0.012018|
|         844|   -6.438088|   -9.090333|    0.824004|    0.012018|
|         845|   -6.442103|   -9.092292|    0.824004|    0.012018|
|         846|   -6.445441|   -9.094242|    0.824004|    0.012018|
|         847|   -6.448617|   -9.096225|    0.824003|    0.012018|
|         848|   -6.452137|   -9.098257|    0.824003|    0.012018|
|         849|   -6.456381|   -9.100437|    0.824003|    0.012017|
|         850|   -6.461552|   -9.102785|    0.824003|    0.012017|
|         851|   -6.467664|   -9.105310|    0.824003|    0.012017|
|         852|   -6.474581|   -9.108024|    0.824003|    0.012017|
|         853|   -6.482066|   -9.110934|    0.824003|    0.012017|
|         854|   -6.489849|   -9.114047|    0.824003|    0.012017|
|         855|   -6.497686|   -9.117365|    0.824003|    0.012017|
|         856|   -6.505403|   -9.120887|    0.824003|    0.012017|
|         857|   -6.512913|   -9.124601|    0.824002|    0.012017|
|         858|   -6.520215|   -9.128491|    0.824002|    0.012017|
|         859|   -6.527369|   -9.132539|    0.824002|    0.012017|
|         860|   -6.534467|   -9.136718|    0.824002|    0.012017|
|         861|   -6.541596|   -9.141000|    0.824002|    0.012017|
|         862|   -6.548820|   -9.145359|    0.824002|    0.012017|
|         863|   -6.556166|   -9.149766|    0.824002|    0.012017|
|         864|   -6.563622|   -9.154199|    0.824002|    0.012017|
|         865|   -6.571148|   -9.158640|    0.824002|    0.012017|
|         866|   -6.578681|   -9.163072|    0.824001|    0.012017|
|         867|   -6.586152|   -9.167501|    0.824001|    0.012017|
|         868|   -6.593489|   -9.171924|    0.824001|    0.012017|
|         869|   -6.600625|   -9.176354|    0.824001|    0.012017|
|         870|   -6.607498|   -9.180809|    0.824001|    0.012017|
|         871|   -6.614050|   -9.185312|    0.824001|    0.012017|
|         872|   -6.620228|   -9.189888|    0.824001|    0.012017|
|         873|   -6.625979|   -9.194562|    0.824001|    0.012017|
|         874|   -6.631251|   -9.199358|    0.824001|    0.012017|
|         875|   -6.635995|   -9.204294|    0.824001|    0.012017|
|         876|   -6.640169|   -9.209382|    0.824001|    0.012017|
|         877|   -6.643738|   -9.214623|    0.824001|    0.012017|
|         878|   -6.646677|   -9.220011|    0.824001|    0.012017|
|         879|   -6.648978|   -9.225527|    0.824001|    0.012017|
|         880|   -6.650644|   -9.231140|    0.824001|    0.012017|
|         881|   -6.651694|   -9.236809|    0.824001|    0.012017|
|         882|   -6.652161|   -9.242491|    0.824001|    0.012017|
|         883|   -6.652088|   -9.248129|    0.824001|    0.012017|
|         884|   -6.651529|   -9.253664|    0.824001|    0.012017|
|         885|   -6.650543|   -9.259041|    0.824001|    0.012017|
|         886|   -6.649194|   -9.264207|    0.824001|    0.012017|
|         887|   -6.647548|   -9.269118|    0.824001|    0.012017|
|         888|   -6.645671|   -9.273742|    0.824001|    0.012017|
|         889|   -6.643627|   -9.278063|    0.824001|    0.012017|
|         890|   -6.641477|   -9.282076|    0.824001|    0.012017|
|         891|   -6.639279|   -9.285795|    0.824001|    0.012017|
|         892|   -6.637085|   -9.289245|    0.824001|    0.012017|
|         893|   -6.634943|   -9.292461|    0.824001|    0.012017|
|         894|   -6.632896|   -9.295485|    0.824002|    0.012017|
|         895|   -6.630981|   -9.298356|    0.824002|    0.012017|
|         896|   -6.629230|   -9.301106|    0.824002|    0.012017|
|         897|   -6.627670|   -9.303755|    0.824002|    0.012017|
|         898|   -6.626325|   -9.306300|    0.824002|    0.012017|
|         899|   -6.625214|   -9.308715|    0.824002|    0.012017|
|         900|   -6.624352|   -9.310944|    0.824002|    0.012017|
|         901|   -6.623752|   -9.312897|    0.824003|    0.012017|
+-----------------------------------------------------------------------+
|Fixed CL Mode                           |Value                         |
+-----------------------------------------------------------------------+
|Current CL                              |0.824003                      |
|Target CL                               |0.824                         |
|Previous AOA                            |2.79009                       |
[...]
|        5298|   -6.036649|   -7.959030|    0.824236|    0.012021|
|        5299|   -6.043311|   -7.962770|    0.824237|    0.012021|
|        5300|   -6.049585|   -7.966551|    0.824237|    0.012021|
|        5301|   -6.055432|   -7.970389|    0.824237|    0.012021|
|        5302|   -6.060824|   -7.974294|    0.824237|    0.012020|
|        5303|   -6.065744|   -7.978278|    0.824237|    0.012020|
|        5304|   -6.070189|   -7.982346|    0.824237|    0.012020|
|        5305|   -6.074165|   -7.986504|    0.824237|    0.012020|
|        5306|   -6.077692|   -7.990754|    0.824237|    0.012020|
|        5307|   -6.080799|   -7.995097|    0.824237|    0.012020|
|        5308|   -6.083524|   -7.999535|    0.824237|    0.012020|
|        5309|   -6.085914|   -8.004068|    0.824238|    0.012020|
|        5310|   -6.088020|   -8.008696|    0.824238|    0.012020|
|        5311|   -6.089896|   -8.013420|    0.824238|    0.012020|
|        5312|   -6.091599|   -8.018242|    0.824238|    0.012020|
|        5313|   -6.093187|   -8.023170|    0.824238|    0.012020|
|        5314|   -6.094714|   -8.028205|    0.824238|    0.012020|
|        5315|   -6.096232|   -8.033350|    0.824238|    0.012020|
|        5316|   -6.097791|   -8.038607|    0.824238|    0.012020|
|        5317|   -6.099434|   -8.043979|    0.824239|    0.012020|
|        5318|   -6.101200|   -8.049469|    0.824239|    0.012021|
|        5319|   -6.103120|   -8.055080|    0.824239|    0.012021|
|        5320|   -6.105222|   -8.060815|    0.824239|    0.012021|
|        5321|   -6.107524|   -8.066676|    0.824239|    0.012021|
|        5322|   -6.110040|   -8.072663|    0.824239|    0.012021|
|        5323|   -6.112775|   -8.078777|    0.824239|    0.012021|
|        5324|   -6.115730|   -8.085016|    0.824240|    0.012021|
|        5325|   -6.118896|   -8.091377|    0.824240|    0.012021|
|        5326|   -6.122262|   -8.097858|    0.824240|    0.012021|
|        5327|   -6.125808|   -8.104452|    0.824240|    0.012021|
|        5328|   -6.129509|   -8.111153|    0.824240|    0.012021|
|        5329|   -6.133335|   -8.117954|    0.824240|    0.012021|
|        5330|   -6.137254|   -8.124845|    0.824240|    0.012021|
|        5331|   -6.141228|   -8.131816|    0.824241|    0.012021|
|        5332|   -6.145218|   -8.138855|    0.824241|    0.012022|
|        5333|   -6.149182|   -8.145951|    0.824241|    0.012022|
|        5334|   -6.153079|   -8.153091|    0.824241|    0.012022|
|        5335|   -6.156870|   -8.160263|    0.824241|    0.012022|
|        5336|   -6.160517|   -8.167453|    0.824241|    0.012022|
|        5337|   -6.163987|   -8.174650|    0.824241|    0.012022|
|        5338|   -6.167251|   -8.181845|    0.824242|    0.012022|
|        5339|   -6.170289|   -8.189028|    0.824242|    0.012022|
|        5340|   -6.173085|   -8.196191|    0.824242|    0.012022|
|        5341|   -6.175633|   -8.203331|    0.824242|    0.012022|
|        5342|   -6.177935|   -8.210441|    0.824242|    0.012022|
|        5343|   -6.179999|   -8.217518|    0.824242|    0.012022|
|        5344|   -6.181844|   -8.224559|    0.824242|    0.012023|
|        5345|   -6.183492|   -8.231564|    0.824242|    0.012023|
|        5346|   -6.184973|   -8.238531|    0.824242|    0.012023|
|        5347|   -6.186320|   -8.245463|    0.824242|    0.012023|
|        5348|   -6.187572|   -8.252361|    0.824243|    0.012023|
|        5349|   -6.188771|   -8.259226|    0.824243|    0.012023|
|        5350|   -6.189960|   -8.266063|    0.824243|    0.012023|
|        5351|   -6.191181|   -8.272875|    0.824243|    0.012023|
|        5352|   -6.192476|   -8.279666|    0.824243|    0.012023|
|        5353|   -6.193884|   -8.286439|    0.824243|    0.012023|
|        5354|   -6.195444|   -8.293199|    0.824243|    0.012023|
|        5355|   -6.197189|   -8.299948|    0.824243|    0.012023|
|        5356|   -6.199153|   -8.306690|    0.824243|    0.012023|
|        5357|   -6.201360|   -8.313429|    0.824243|    0.012023|
|        5358|   -6.203832|   -8.320166|    0.824243|    0.012023|
|        5359|   -6.206586|   -8.326904|    0.824243|    0.012023|
|        5360|   -6.209635|   -8.333642|    0.824243|    0.012023|
|        5361|   -6.212986|   -8.340378|    0.824243|    0.012023|
|        5362|   -6.216644|   -8.347107|    0.824243|    0.012023|
|        5363|   -6.220605|   -8.353823|    0.824243|    0.012023|
|        5364|   -6.224862|   -8.360519|    0.824243|    0.012023|
|        5365|   -6.229405|   -8.367187|    0.824243|    0.012023|
|        5366|   -6.234216|   -8.373818|    0.824243|    0.012023|
|        5367|   -6.239274|   -8.380405|    0.824243|    0.012023|
|        5368|   -6.244553|   -8.386940|    0.824243|    0.012023|
|        5369|   -6.250023|   -8.393416|    0.824243|    0.012023|
|        5370|   -6.255648|   -8.399826|    0.824243|    0.012023|
|        5371|   -6.261390|   -8.406164|    0.824243|    0.012023|
|        5372|   -6.267206|   -8.412428|    0.824243|    0.012023|
|        5373|   -6.273053|   -8.418612|    0.824243|    0.012023|
|        5374|   -6.278884|   -8.424715|    0.824243|    0.012023|
|        5375|   -6.284649|   -8.430738|    0.824243|    0.012023|
|        5376|   -6.290302|   -8.436681|    0.824243|    0.012023|
|        5377|   -6.295795|   -8.442549|    0.824243|    0.012022|
|        5378|   -6.301082|   -8.448345|    0.824243|    0.012022|
|        5379|   -6.306123|   -8.454077|    0.824243|    0.012022|
|        5380|   -6.310878|   -8.459753|    0.824243|    0.012022|
|        5381|   -6.315317|   -8.465381|    0.824243|    0.012022|
|        5382|   -6.319411|   -8.470975|    0.824243|    0.012022|
|        5383|   -6.323143|   -8.476543|    0.824243|    0.012022|
|        5384|   -6.326500|   -8.482095|    0.824243|    0.012022|
|        5385|   -6.329476|   -8.487640|    0.824243|    0.012022|
|        5386|   -6.332073|   -8.493187|    0.824243|    0.012022|
|        5387|   -6.334300|   -8.498743|    0.824243|    0.012022|
|        5388|   -6.336171|   -8.504312|    0.824243|    0.012022|
|        5389|   -6.337704|   -8.509897|    0.824243|    0.012021|
|        5390|   -6.338923|   -8.515497|    0.824243|    0.012021|
|        5391|   -6.339852|   -8.521110|    0.824243|    0.012021|
|        5392|   -6.340518|   -8.526727|    0.824243|    0.012021|
|        5393|   -6.340949|   -8.532333|    0.824243|    0.012021|
|        5394|   -6.341173|   -8.537917|    0.824243|    0.012021|
|        5395|   -6.341216|   -8.543462|    0.824244|    0.012021|
|        5396|   -6.341102|   -8.548949|    0.824244|    0.012021|
|        5397|   -6.340855|   -8.554355|    0.824244|    0.012021|
|        5398|   -6.340494|   -8.559656|    0.824244|    0.012021|
|        5399|   -6.340038|   -8.564826|    0.824244|    0.012020|
|        5400|   -6.339502|   -8.569836|    0.824244|    0.012020|
|        5401|   -6.338898|   -8.574661|    0.824245|    0.012020|
|        5402|   -6.338238|   -8.579273|    0.824245|    0.012020|
|        5403|   -6.337530|   -8.583649|    0.824245|    0.012020|
|        5404|   -6.336781|   -8.587769|    0.824245|    0.012020|
|        5405|   -6.335996|   -8.591615|    0.824245|    0.012020|
|        5406|   -6.335179|   -8.595176|    0.824245|    0.012020|
|        5407|   -6.334334|   -8.598444|    0.824246|    0.012020|
|        5408|   -6.333464|   -8.601419|    0.824246|    0.012020|
|        5409|   -6.332570|   -8.604104|    0.824246|    0.012020|
|        5410|   -6.331655|   -8.606508|    0.824246|    0.012019|
|        5411|   -6.330721|   -8.608646|    0.824246|    0.012019|
|        5412|   -6.329771|   -8.610535|    0.824246|    0.012019|
|        5413|   -6.328808|   -8.612197|    0.824247|    0.012019|
|        5414|   -6.327834|   -8.613657|    0.824247|    0.012019|
|        5415|   -6.326854|   -8.614938|    0.824247|    0.012019|
|        5416|   -6.325872|   -8.616066|    0.824247|    0.012019|
|        5417|   -6.324893|   -8.617068|    0.824247|    0.012019|
|        5418|   -6.323923|   -8.617966|    0.824247|    0.012019|
|        5419|   -6.322968|   -8.618783|    0.824248|    0.012019|
|        5420|   -6.322036|   -8.619539|    0.824248|    0.012019|
|        5421|   -6.321135|   -8.620252|    0.824248|    0.012019|
|        5422|   -6.320272|   -8.620935|    0.824248|    0.012019|
|        5423|   -6.319458|   -8.621601|    0.824248|    0.012019|
|        5424|   -6.318704|   -8.622258|    0.824248|    0.012019|
|        5425|   -6.318019|   -8.622914|    0.824248|    0.012019|
|        5426|   -6.317416|   -8.623574|    0.824249|    0.012019|
|        5427|   -6.316906|   -8.624239|    0.824249|    0.012019|
|        5428|   -6.316503|   -8.624913|    0.824249|    0.012019|
|        5429|   -6.316221|   -8.625596|    0.824249|    0.012019|
|        5430|   -6.316071|   -8.626289|    0.824249|    0.012019|
|        5431|   -6.316070|   -8.626994|    0.824249|    0.012019|
|        5432|   -6.316231|   -8.627710|    0.824249|    0.012019|
|        5433|   -6.316567|   -8.628442|    0.824249|    0.012019|
|        5434|   -6.317093|   -8.629192|    0.824249|    0.012019|
|        5435|   -6.317822|   -8.629957|    0.824249|    0.012019|
|        5436|   -6.318767|   -8.630746|    0.824249|    0.012019|
|        5437|   -6.319940|   -8.631566|    0.824249|    0.012019|
|        5438|   -6.321351|   -8.632428|    0.824249|    0.012019|
|        5439|   -6.323011|   -8.633343|    0.824250|    0.012019|
|        5440|   -6.324926|   -8.634322|    0.824250|    0.012019|
|        5441|   -6.327105|   -8.635377|    0.824250|    0.012019|
|        5442|   -6.329550|   -8.636520|    0.824250|    0.012019|
|        5443|   -6.332264|   -8.637763|    0.824250|    0.012019|
|        5444|   -6.335246|   -8.639117|    0.824250|    0.012019|
|        5445|   -6.338494|   -8.640591|    0.824250|    0.012019|
|        5446|   -6.342001|   -8.642197|    0.824250|    0.012019|
|        5447|   -6.345759|   -8.643941|    0.824250|    0.012019|
|        5448|   -6.349755|   -8.645833|    0.824250|    0.012020|
|        5449|   -6.353973|   -8.647876|    0.824250|    0.012020|
|        5450|   -6.358394|   -8.650077|    0.824249|    0.012020|
|        5451|   -6.362996|   -8.652438|    0.824249|    0.012020|
|        5452|   -6.367752|   -8.654961|    0.824249|    0.012020|
|        5453|   -6.372632|   -8.657645|    0.824249|    0.012020|
|        5454|   -6.377602|   -8.660491|    0.824249|    0.012020|
|        5455|   -6.382627|   -8.663495|    0.824249|    0.012020|
|        5456|   -6.387667|   -8.666654|    0.824249|    0.012020|
|        5457|   -6.392680|   -8.669962|    0.824249|    0.012020|
|        5458|   -6.397622|   -8.673414|    0.824249|    0.012020|
|        5459|   -6.402449|   -8.677003|    0.824249|    0.012020|
|        5460|   -6.407116|   -8.680721|    0.824249|    0.012020|
|        5461|   -6.411578|   -8.684562|    0.824249|    0.012021|
|        5462|   -6.415793|   -8.688515|    0.824249|    0.012021|
|        5463|   -6.419721|   -8.692574|    0.824248|    0.012021|
|        5464|   -6.423325|   -8.696728|    0.824248|    0.012021|
|        5465|   -6.426574|   -8.700967|    0.824248|    0.012021|
|        5466|   -6.429444|   -8.705281|    0.824248|    0.012021|
|        5467|   -6.431915|   -8.709660|    0.824248|    0.012021|
|        5468|   -6.433975|   -8.714093|    0.824248|    0.012021|
|        5469|   -6.435621|   -8.718570|    0.824248|    0.012021|
|        5470|   -6.436855|   -8.723078|    0.824248|    0.012021|
|        5471|   -6.437688|   -8.727608|    0.824247|    0.012021|
|        5472|   -6.438138|   -8.732147|    0.824247|    0.012021|
|        5473|   -6.438228|   -8.736685|    0.824247|    0.012021|
|        5474|   -6.437986|   -8.741209|    0.824247|    0.012021|
|        5475|   -6.437447|   -8.745707|    0.824247|    0.012021|
|        5476|   -6.436647|   -8.750166|    0.824247|    0.012021|
|        5477|   -6.435624|   -8.754575|    0.824246|    0.012021|
|        5478|   -6.434419|   -8.758920|    0.824246|    0.012021|
|        5479|   -6.433073|   -8.763188|    0.824246|    0.012021|
|        5480|   -6.431626|   -8.767366|    0.824246|    0.012022|
|        5481|   -6.430118|   -8.771443|    0.824246|    0.012022|
|        5482|   -6.428586|   -8.775404|    0.824246|    0.012022|
|        5483|   -6.427066|   -8.779240|    0.824246|    0.012022|
|        5484|   -6.425590|   -8.782939|    0.824245|    0.012022|
|        5485|   -6.424191|   -8.786491|    0.824245|    0.012022|
|        5486|   -6.422895|   -8.789888|    0.824245|    0.012022|
|        5487|   -6.421728|   -8.793125|    0.824245|    0.012022|
|        5488|   -6.420711|   -8.796195|    0.824245|    0.012022|
|        5489|   -6.419865|   -8.799096|    0.824245|    0.012022|
|        5490|   -6.419206|   -8.801829|    0.824245|    0.012022|
|        5491|   -6.418748|   -8.804393|    0.824244|    0.012021|
|        5492|   -6.418502|   -8.806793|    0.824244|    0.012021|
|        5493|   -6.418479|   -8.809036|    0.824244|    0.012021|
|        5494|   -6.418685|   -8.811127|    0.824244|    0.012021|
|        5495|   -6.419127|   -8.813078|    0.824244|    0.012021|
|        5496|   -6.419806|   -8.814914|    0.824244|    0.012021|
|        5497|   -6.420725|   -8.816639|    0.824244|    0.012021|
|        5498|   -6.421885|   -8.818262|    0.824244|    0.012021|
|        5499|   -6.423284|   -8.819793|    0.824244|    0.012007|
+-----------------------------------------------------------------------+
|Fixed CL Mode (Finite Difference)       |Value                         |
+-----------------------------------------------------------------------+
|Delta CL / Delta AoA                    |0.243706                      |
|Delta CD / Delta CL                     |0.0174593                     |
|Delta CMz / Delta CL                    |0.00149824                    |
+-----------------------------------------------------------------------+
Writing Flow Meta-Data file: flow.meta

----------------------------- Solver Exit -------------------------------

Maximum number of iterations reached (ITER = 5500) before convergence.
+-----------------------------------------------------------------------+
|      Convergence Field     |     Value    |   Criterion  |  Converged |
+-----------------------------------------------------------------------+
|                    rms[Rho]|      -6.42328|         < -12|          No|
+-----------------------------------------------------------------------+
-------------------------------------------------------------------------

--------------------------- Finalizing Solver ---------------------------
Deleted CNumerics container.
Deleted CIntegration container.
Deleted CSolver container.
Deleted CIteration container.
Deleted CInterface container.
Deleted CGeometry container.
Deleted CFreeFormDefBox class.
Deleted CSurfaceMovement class.
Deleted CVolumetricMovement class.
Deleted CConfig container.
Deleted nInst container.
Deleted COutput class.
-------------------------------------------------------------------------

------------------------- Exit Success (SU2_CFD) ------------------------


-------------------------------------------------------------------------
|    ___ _   _ ___                                                      |
|   / __| | | |_  )   Release 8.0.0 "Harrier"                           |
|   \__ \ |_| |/ /                                                      |
|   |___/\___//___|   Suite (Solution Exporting Code)                   |
|                                                                       |
-------------------------------------------------------------------------
| SU2 Project Website: https://su2code.github.io                        |
|                                                                       |
| The SU2 Project is maintained by the SU2 Foundation                   |
| (http://su2foundation.org)                                            |
-------------------------------------------------------------------------
| Copyright 2012-2023, SU2 Contributors                                 |
|                                                                       |
| SU2 is free software; you can redistribute it and/or                  |
| modify it under the terms of the GNU Lesser General Public            |
| License as published by the Free Software Foundation; either          |
| version 2.1 of the License, or (at your option) any later version.    |
|                                                                       |
| SU2 is distributed in the hope that it will be useful,                |
| but WITHOUT ANY WARRANTY; without even the implied warranty of        |
| MERCHANTABILITY or FITNESS FOR A PARTICULAR PURPOSE. See the GNU      |
| Lesser General Public License for more details.                       |
|                                                                       |
| You should have received a copy of the GNU Lesser General Public      |
| License along with SU2. If not, see <http://www.gnu.org/licenses/>.   |
-------------------------------------------------------------------------

----------------- Physical Case Definition ( Zone 0 ) -------------------
Input mesh file name: mesh_RAE2822_turb_deform.su2

-------------------- Output Information ( Zone 0 ) ----------------------
The tabular file format is CSV (.csv).
Flow variables file name: flow.

------------- Config File Boundary Information ( Zone 0 ) ---------------
+-----------------------------------------------------------------------+
|                        Marker Type|                        Marker Name|
+-----------------------------------------------------------------------+
|                          Far-field|                           FARFIELD|
+-----------------------------------------------------------------------+
|                     Heat flux wall|                            AIRFOIL|
+-----------------------------------------------------------------------+
Two dimensional problem.
13937 grid points before partitioning.
22842 volume elements before partitioning.
2 surface markers.
192 boundary elements in index 0 (Marker = AIRFOIL).
40 boundary elements in index 1 (Marker = FARFIELD).
Executing the partitioning functions.
Building the graph adjacency structure.
Calling ParMETIS... graph partitioning complete (831 edge cuts).
Distributing ParMETIS coloring.
Rebalancing vertices.
Rebalancing volume element connectivity.
Rebalancing markers and surface elements.
14875 vertices including ghost points. 
23674 interior elements including halo cells. 
18780 triangles.
4894 quadrilaterals.
Establishing MPI communication patterns.
Identify vertices.
Storing a mapping from global to local point index.

------------------------- Solution Postprocessing -----------------------
Reading and storing the solution from restart_flow.
Volume output fields: COORDINATES, SOLUTION
  Info: Ignoring the following screen output fields:
  RMS_DENSITY, RMS_NU_TILDE, LIFT, DRAG
Screen output fields: INNER_ITER
  Info: Ignoring the following history output groups:
  RMS_RES, AERO_COEFF
History output group(s): ITER
Warning: No (valid) fields chosen for convergence monitoring. Convergence monitoring inactive.
Warning: No (valid) fields chosen for time convergence monitoring. Time convergence monitoring inactive.
|Paraview                           |flow.vtu                           |
|Paraview surface                   |surface_flow.vtu                   |
|CSV file                           |surface_flow.csv                   |

------------------------- Finalize Solver -------------------------
Deleted CGeometry container.
Deleted CSolver class.
Deleted CConfig container.
Deleted COutput class.

Completed in 0.015325 seconds on 6 cores.

------------------------- Exit Success (SU2_SOL) ------------------------

