
-------------------------------------------------------------------------
|    ___ _   _ ___                                                      |
|   / __| | | |_  )   Release 8.0.0 "Harrier"                           |
|   \__ \ |_| |/ /                                                      |
|   |___/\___//___|   Suite (Computational Fluid Dynamics Code)         |
|                                                                       |
-------------------------------------------------------------------------
| SU2 Project Website: https://su2code.github.io                        |
|                                                                       |
| The SU2 Project is maintained by the SU2 Foundation                   |
| (http://su2foundation.org)                                            |
-------------------------------------------------------------------------
| Copyright 2012-2023, SU2 Contributors                                 |
|                                                                       |
| SU2 is free software; you can redistribute it and/or                  |
| modify it under the terms of the GNU Lesser General Public            |
| License as published by the Free Software Foundation; either          |
| version 2.1 of the License, or (at your option) any later version.    |
|                                                                       |
| SU2 is distributed in the hope that it will be useful,                |
| but WITHOUT ANY WARRANTY; without even the implied warranty of        |
| MERCHANTABILITY or FITNESS FOR A PARTICULAR PURPOSE. See the GNU      |
| Lesser General Public License for more details.                       |
|                                                                       |
| You should have received a copy of the GNU Lesser General Public      |
| License along with SU2. If not, see <http://www.gnu.org/licenses/>.   |
-------------------------------------------------------------------------

Parsing config file for zone 0

----------------- Physical Case Definition ( Zone 0 ) -------------------
Compressible RANS equations.
Turbulence model: Spalart-Allmaras-noft2
Hybrid RANS/LES: No Hybrid RANS/LES
Mach number: 0.734.
Angle of attack (AoA): 2.31 deg, and angle of sideslip (AoS): 0 deg.
Reynolds number: 6.5e+06. Reference length 1.
Fixed CL mode, target value: 0.824.
Reading and writing binary SU2 native restart files.
Read flow solution from: solution_flow.dat.
Dimensional simulation.
The reference area is 1 m^2.
The semi-span will be computed using the max y(3D) value.
The reference length is 1 m.
Reference origin for moment evaluation is (0.25, 0, 0).
Surface(s) where the force coefficients are evaluated: AIRFOIL.

Surface(s) plotted in the output file: AIRFOIL.
Surface(s) affected by the design variables: AIRFOIL.
Input mesh file name: mesh_RAE2822_turb_deform.su2

--------------- Space Numerical Integration ( Zone 0 ) ------------------
Jameson-Schmidt-Turkel scheme (2nd order in space) for the flow inviscid terms.
JST viscous coefficients (2nd & 4th): 0.5, 0.02.
The method includes a grid stretching correction (p = 0.3).
Scalar upwind solver for the turbulence model.
First order integration in space.
Average of gradients with correction (viscous flow terms).
Average of gradients with correction (viscous turbulence terms).
Gradient for viscous and source terms: inverse-distance weighted Least-Squares.

--------------- Time Numerical Integration  ( Zone 0 ) ------------------
Local time stepping (steady state simulation).
Euler implicit method for the flow equations.
FGMRES is used for solving the linear system.
Using a ILU(0) preconditioning.
Convergence criteria of the linear solver: 1e-06.
Max number of linear iterations: 10.
No CFL adaptation.
Courant-Friedrichs-Lewy number:       10
Euler implicit time integration for the turbulence model.

------------------ Convergence Criteria  ( Zone 0 ) ---------------------
Maximum number of solver subiterations: 5500.
Begin convergence monitoring at iteration 10.
Residual minimum value: 1e-12.
Cauchy series min. value: 1e-06.
Number of Cauchy elements: 100.
Begin windowed time average at iteration 0.

-------------------- Output Information ( Zone 0 ) ----------------------
File writing frequency: 
+------------------------------------+
|                     File| Frequency|
+------------------------------------+
|                  RESTART|     10000|
|                 PARAVIEW|     10000|
|         SURFACE_PARAVIEW|     10000|
|              SURFACE_CSV|     10000|
+------------------------------------+
Writing the convergence history file every 1 inner iterations.
Writing the screen convergence history every 1 inner iterations.
The tabular file format is CSV (.csv).
Convergence history file name: history_direct.
Forces breakdown file name: forces_breakdown.dat.
Surface file name: surface_flow.
Volume file name: flow.
Restart file name: restart_flow.dat.

------------- Config File Boundary Information ( Zone 0 ) ---------------
+-----------------------------------------------------------------------+
|                        Marker Type|                        Marker Name|
+-----------------------------------------------------------------------+
|                          Far-field|                           FARFIELD|
+-----------------------------------------------------------------------+
|                     Heat flux wall|                            AIRFOIL|
+-----------------------------------------------------------------------+

-------------------- Output Preprocessing ( Zone 0 ) --------------------

WARNING: SURFACE_PRESSURE_DROP can only be computed for at least 2 surfaces (outlet, inlet, ...)

Screen output fields: INNER_ITER, RMS_DENSITY, RMS_NU_TILDE, LIFT, DRAG
History output group(s): ITER, RMS_RES, AERO_COEFF
Convergence field(s): RMS_DENSITY
Warning: No (valid) fields chosen for time convergence monitoring. Time convergence monitoring inactive.
Volume output fields: COORDINATES, SOLUTION, PRIMITIVE

------------------- Geometry Preprocessing ( Zone 0 ) -------------------
Two dimensional problem.
13937 grid points before partitioning.
22842 volume elements before partitioning.
2 surface markers.
192 boundary elements in index 0 (Marker = AIRFOIL).
40 boundary elements in index 1 (Marker = FARFIELD).
Executing the partitioning functions.
Building the graph adjacency structure.
Calling ParMETIS... graph partitioning complete (831 edge cuts).
Distributing ParMETIS coloring.
Rebalancing vertices.
Rebalancing volume element connectivity.
Rebalancing markers and surface elements.
14875 vertices including ghost points. 
23674 interior elements including halo cells. 
18780 triangles.
4894 quadrilaterals.
Establishing MPI communication patterns.
Setting point connectivity.
Renumbering points (Reverse Cuthill McKee Ordering).
Recomputing point connectivity.
Setting element connectivity.
Checking the numerical grid orientation.
All volume elements are correctly orientend.
All surface elements are correctly orientend.
Identifying edges and vertices.
Setting the control volume structure.
Area of the computational grid: 32209.9.
Searching for the closest normal neighbors to the surfaces.
Storing a mapping from global to local point index.
Compute the surface curvature.
Max K: 198.939. Mean K: 8.21462. Standard deviation K: 26.3334.
Checking for periodicity.
Computing mesh quality statistics for the dual control volumes.
+--------------------------------------------------------------+
|           Mesh Quality Metric|        Minimum|        Maximum|
+--------------------------------------------------------------+
|    Orthogonality Angle (deg.)|         74.606|        89.9999|
|     CV Face Area Aspect Ratio|         1.0016|        3358.81|
|           CV Sub-Volume Ratio|        1.00065|        1218.59|
+--------------------------------------------------------------+
Finding max control volume width.
Communicating number of neighbors.
Wetted area = 2.02147 m.
Area projection in the x-plane = 0.127316 m, y-plane = 0.995873 m.
Max. coordinate in the x-direction = 1 m, y-direction = 0.061691 m.
Min. coordinate in the x-direction = 0 m, y-direction = -0.0620628 m.
Computing wall distances.

-------------------- Solver Preprocessing ( Zone 0 ) --------------------
WARNING: AoA in the solution file (2.77015 deg.) +
         AoA offset in mesh file (0 deg.) = 2.77015 deg.
WARNING: SU2 will use the dCD/dCL provided in the direct solution file: 0.0189159.
WARNING: SU2 will use the dCMz/dCL provided in the direct solution file: 0.00353695.
Viscous flow: Computing pressure using the ideal gas law
based on the free-stream temperature and a density computed
from the Reynolds number.
Force coefficients computed using free-stream values.

-- Models:
+------------------------------------------------------------------------------+
|          Viscosity Model|        Conductivity Model|              Fluid Model|
+------------------------------------------------------------------------------+
|               SUTHERLAND|          CONSTANT_PRANDTL|             STANDARD_AIR|
+------------------------------------------------------------------------------+
-- Fluid properties:
+------------------------------------------------------------------------------+
|                  Name|    Dim. value|    Ref. value|      Unit|Non-dim. value|
+------------------------------------------------------------------------------+
|        Ref. Viscosity|     1.716e-05|             1|   N.s/m^2|     1.716e-05|
|      Sutherland Temp.|        273.15|             1|         K|        273.15|
|     Sutherland Const.|         110.4|             1|         K|         110.4|
+------------------------------------------------------------------------------+
|        Prandtl (Lam.)|             -|             -|         -|          0.71|
|       Prandtl (Turb.)|             -|             -|         -|           0.9|
+------------------------------------------------------------------------------+
|          Gas Constant|       287.058|             1|  N.m/kg.K|       287.058|
|      Spec. Heat Ratio|             -|             -|         -|           1.4|
+------------------------------------------------------------------------------+
-- Initial and free-stream conditions:
+------------------------------------------------------------------------------+
|                  Name|    Dim. value|    Ref. value|      Unit|Non-dim. value|
+------------------------------------------------------------------------------+
|       Static Pressure|         38515|             1|        Pa|         38515|
|               Density|      0.465631|             1|    kg/m^3|      0.465631|
|           Temperature|        288.15|             1|         K|        288.15|
|          Total Energy|        237984|             1|   m^2/s^2|        237984|
|            Velocity-X|       249.486|             1|       m/s|       249.486|
|            Velocity-Y|       12.0716|             1|       m/s|       12.0716|
|    Velocity Magnitude|       249.778|             1|       m/s|       249.778|
+------------------------------------------------------------------------------+
|             Viscosity|    1.7893e-05|             1|   N.s/m^2|    1.7893e-05|
|          Conductivity|             -|             1|   W/m^2.K|             -|
|     Turb. Kin. Energy|       233.959|             1|   m^2/s^2|       233.959|
|     Spec. Dissipation|        608834|             1|       1/s|        608834|
+------------------------------------------------------------------------------+
|           Mach Number|             -|             -|         -|         0.734|
|       Reynolds Number|             -|             -|         -|       6.5e+06|
+------------------------------------------------------------------------------+
Initialize Jacobian structure (Navier-Stokes). MG level: 0.
Initialize Jacobian structure (SA model).

------------------- Numerics Preprocessing ( Zone 0 ) -------------------

----------------- Integration Preprocessing ( Zone 0 ) ------------------

------------------- Iteration Preprocessing ( Zone 0 ) ------------------
Euler/Navier-Stokes/RANS fluid iteration.

------------------------------ Begin Solver -----------------------------

Simulation Run using the Single-zone Driver
WARNING: SU2 was not compiled for an AVX-capable architecture. Performance could be better,
         see https://su2code.github.io/docs_v7/Build-SU2-Linux-MacOS/#compiler-optimizations
+----------------------------------------------------------------+
|  Inner_Iter|    rms[Rho]|     rms[nu]|          CL|          CD|
+----------------------------------------------------------------+
|           0|   -4.845159|   -6.215967|    0.824103|    0.012029|
|           1|   -4.904071|   -6.325522|    0.824156|    0.012054|
|           2|   -4.967345|   -6.457496|    0.824170|    0.012067|
|           3|   -5.013018|   -6.611958|    0.824161|    0.012072|
|           4|   -5.040429|   -6.780229|    0.824144|    0.012072|
|           5|   -5.054506|   -6.910592|    0.824131|    0.012071|
|           6|   -5.059810|   -6.931633|    0.824124|    0.012070|
|           7|   -5.059973|   -6.890785|    0.824124|    0.012071|
|           8|   -5.057563|   -6.852876|    0.824129|    0.012073|
|           9|   -5.053778|   -6.827581|    0.824137|    0.012076|
|          10|   -5.048674|   -6.805558|    0.824148|    0.012080|
|          11|   -5.041892|   -6.779595|    0.824159|    0.012085|
|          12|   -5.033310|   -6.750808|    0.824171|    0.012091|
|          13|   -5.023247|   -6.725149|    0.824183|    0.012097|
|          14|   -5.012313|   -6.707888|    0.824194|    0.012103|
|          15|   -5.001178|   -6.701547|    0.824203|    0.012109|
|          16|   -4.990425|   -6.706245|    0.824209|    0.012116|
|          17|   -4.980528|   -6.720407|    0.824213|    0.012122|
|          18|   -4.971890|   -6.741073|    0.824213|    0.012127|
|          19|   -4.964870|   -6.763997|    0.824209|    0.012132|
|          20|   -4.959770|   -6.784087|    0.824201|    0.012137|
|          21|   -4.956787|   -6.796826|    0.824190|    0.012141|
|          22|   -4.955954|   -6.800338|    0.824175|    0.012144|
|          23|   -4.957109|   -6.796316|    0.824157|    0.012146|
|          24|   -4.959894|   -6.788740|    0.824136|    0.012148|
|          25|   -4.963807|   -6.781674|    0.824112|    0.012149|
|          26|   -4.968276|   -6.777845|    0.824087|    0.012149|
|          27|   -4.972743|   -6.778330|    0.824061|    0.012148|
|          28|   -4.976740|   -6.782801|    0.824034|    0.012147|
|          29|   -4.979928|   -6.789918|    0.824007|    0.012144|
|          30|   -4.982101|   -6.797785|    0.823980|    0.012141|
|          31|   -4.983160|   -6.804508|    0.823954|    0.012138|
|          32|   -4.983091|   -6.808781|    0.823929|    0.012133|
|          33|   -4.981943|   -6.810270|    0.823905|    0.012128|
|          34|   -4.979826|   -6.809620|    0.823883|    0.012123|
|          35|   -4.976908|   -6.808092|    0.823862|    0.012117|
|          36|   -4.973412|   -6.807096|    0.823842|    0.012110|
|          37|   -4.969588|   -6.807830|    0.823824|    0.012103|
|          38|   -4.965685|   -6.811109|    0.823807|    0.012095|
|          39|   -4.961914|   -6.817334|    0.823791|    0.012088|
|          40|   -4.958426|   -6.826528|    0.823777|    0.012080|
|          41|   -4.955294|   -6.838368|    0.823764|    0.012072|
|          42|   -4.952520|   -6.852205|    0.823752|    0.012064|
|          43|   -4.950041|   -6.867077|    0.823742|    0.012056|
|          44|   -4.947754|   -6.881738|    0.823732|    0.012048|
|          45|   -4.945534|   -6.894747|    0.823725|    0.012041|
|          46|   -4.943254|   -6.904649|    0.823718|    0.012034|
|          47|   -4.940797|   -6.910286|    0.823713|    0.012027|
|          48|   -4.938066|   -6.911123|    0.823709|    0.012021|
|          49|   -4.934989|   -6.907409|    0.823707|    0.012015|
|          50|   -4.931518|   -6.900111|    0.823706|    0.012009|
|          51|   -4.927628|   -6.890616|    0.823707|    0.012003|
|          52|   -4.923315|   -6.880402|    0.823709|    0.011998|
|          53|   -4.918595|   -6.870777|    0.823713|    0.011993|
|          54|   -4.913500|   -6.862741|    0.823719|    0.011989|
|          55|   -4.908075|   -6.856959|    0.823727|    0.011984|
|          56|   -4.902375|   -6.853786|    0.823736|    0.011980|
|          57|   -4.896459|   -6.853316|    0.823747|    0.011976|
|          58|   -4.890386|   -6.855438|    0.823759|    0.011972|
|          59|   -4.884212|   -6.859883|    0.823773|    0.011969|
|          60|   -4.877988|   -6.866270|    0.823788|    0.011966|
|          61|   -4.871756|   -6.874156|    0.823805|    0.011963|
|          62|   -4.865548|   -6.883070|    0.823822|    0.011960|
|          63|   -4.859392|   -6.892560|    0.823839|    0.011957|
|          64|   -4.853309|   -6.902214|    0.823857|    0.011955|
|          65|   -4.847317|   -6.911687|    0.823875|    0.011953|
|          66|   -4.841435|   -6.920702|    0.823893|    0.011951|
|          67|   -4.835680|   -6.929051|    0.823911|    0.011949|
|          68|   -4.830073|   -6.936580|    0.823928|    0.011947|
|          69|   -4.824634|   -6.943189|    0.823944|    0.011946|
|          70|   -4.819386|   -6.948827|    0.823959|    0.011945|
|          71|   -4.814348|   -6.953494|    0.823973|    0.011944|
|          72|   -4.809536|   -6.957235|    0.823985|    0.011944|
|          73|   -4.804962|   -6.960141|    0.823997|    0.011943|
|          74|   -4.800632|   -6.962332|    0.824007|    0.011943|
|          75|   -4.796542|   -6.963924|    0.824016|    0.011942|
|          76|   -4.792684|   -6.965016|    0.824024|    0.011942|
|          77|   -4.789040|   -6.965675|    0.824030|    0.011942|
|          78|   -4.785589|   -6.965925|    0.824036|    0.011942|
|          79|   -4.782306|   -6.965748|    0.824041|    0.011942|
|          80|   -4.779167|   -6.965108|    0.824045|    0.011942|
|          81|   -4.776150|   -6.963978|    0.824048|    0.011942|
|          82|   -4.773240|   -6.962362|    0.824050|    0.011943|
|          83|   -4.770427|   -6.960310|    0.824052|    0.011943|
|          84|   -4.767716|   -6.957932|    0.824054|    0.011943|
|          85|   -4.765119|   -6.955394|    0.824056|    0.011944|
|          86|   -4.762660|   -6.952897|    0.824057|    0.011945|
|          87|   -4.760370|   -6.950657|    0.824058|    0.011946|
|          88|   -4.758289|   -6.948881|    0.824060|    0.011946|
|          89|   -4.756458|   -6.947749|    0.824061|    0.011948|
|          90|   -4.754923|   -6.947396|    0.824063|    0.011949|
|          91|   -4.753723|   -6.947907|    0.824064|    0.011950|
|          92|   -4.752895|   -6.949312|    0.824066|    0.011952|
|          93|   -4.752471|   -6.951592|    0.824068|    0.011954|
|          94|   -4.752470|   -6.954688|    0.824071|    0.011955|
|          95|   -4.752904|   -6.958510|    0.824073|    0.011957|
|          96|   -4.753773|   -6.962947|    0.824076|    0.011960|
|          97|   -4.755067|   -6.967876|    0.824079|    0.011962|
|          98|   -4.756763|   -6.973175|    0.824083|    0.011965|
|          99|   -4.758827|   -6.978729|    0.824086|    0.011967|
|         100|   -4.761215|   -6.984437|    0.824090|    0.011970|
|         101|   -4.763870|   -6.990215|    0.824094|    0.011967|
+-----------------------------------------------------------------------+
|Fixed CL Mode                           |Value                         |
+-----------------------------------------------------------------------+
|Current CL                              |0.824094                      |
|Target CL                               |0.824                         |
|Previous AOA                            |2.77015                       |
|Changed AoA by                          |-0.000450477                  |
+-----------------------------------------------------------------------+
+----------------------------------------------------------------+
|  Inner_Iter|    rms[Rho]|     rms[nu]|          CL|          CD|
+----------------------------------------------------------------+
|         102|   -3.538515|   -6.984672|    0.824098|    0.011970|
|         103|   -3.914997|   -6.995784|    0.824102|    0.011973|
|         104|   -4.141451|   -7.003075|    0.824106|    0.011976|
|         105|   -4.214622|   -7.009573|    0.824110|    0.011980|
|         106|   -4.267953|   -7.015730|    0.824114|    0.011983|
|         107|   -4.335906|   -7.021656|    0.824118|    0.011986|
|         108|   -4.417117|   -7.027403|    0.824121|    0.011990|
|         109|   -4.498486|   -7.033017|    0.824124|    0.011993|
|         110|   -4.564580|   -7.038528|    0.824127|    0.011997|
|         111|   -4.608611|   -7.043953|    0.824129|    0.012000|
|         112|   -4.633183|   -7.049302|    0.824131|    0.012003|
|         113|   -4.643182|   -7.054592|    0.824132|    0.012006|
|         114|   -4.643403|   -7.059845|    0.824133|    0.012009|
|         115|   -4.639240|   -7.065075|    0.824134|    0.012011|
|         116|   -4.635609|   -7.070283|    0.824134|    0.012014|
|         117|   -4.635315|   -7.075459|    0.824133|    0.012016|
|         118|   -4.638658|   -7.080590|    0.824132|    0.012019|
|         119|   -4.644176|   -7.085666|    0.824130|    0.012021|
|         120|   -4.649873|   -7.090677|    0.824129|    0.012022|
|         121|   -4.654342|   -7.095619|    0.824126|    0.012024|
|         122|   -4.657260|   -7.100492|    0.824124|    0.012025|
|         123|   -4.659136|   -7.105299|    0.824121|    0.012027|
|         124|   -4.660707|   -7.110054|    0.824118|    0.012028|
|         125|   -4.662504|   -7.114779|    0.824115|    0.012029|
|         126|   -4.664746|   -7.119506|    0.824113|    0.012030|
|         127|   -4.667449|   -7.124268|    0.824110|    0.012030|
|         128|   -4.670545|   -7.129100|    0.824107|    0.012031|
|         129|   -4.673936|   -7.134031|    0.824104|    0.012032|
|         130|   -4.677508|   -7.139080|    0.824101|    0.012032|
|         131|   -4.681141|   -7.144250|    0.824099|    0.012032|
|         132|   -4.684731|   -7.149529|    0.824097|    0.012033|
|         133|   -4.688226|   -7.154887|    0.824094|    0.012033|
|         134|   -4.691629|   -7.160277|    0.824093|    0.012033|
|         135|   -4.694977|   -7.165635|    0.824091|    0.012033|
|         136|   -4.698309|   -7.170885|    0.824089|    0.012033|
|         137|   -4.701625|   -7.175945|    0.824088|    0.012034|
|         138|   -4.704875|   -7.180728|    0.824087|    0.012034|
|         139|   -4.707953|   -7.185156|    0.824086|    0.012034|
|         140|   -4.710710|   -7.189160|    0.824085|    0.012034|
|         141|   -4.712978|   -7.192687|    0.824084|    0.012034|
|         142|   -4.714610|   -7.195706|    0.824083|    0.012034|
|         143|   -4.715515|   -7.198214|    0.824081|    0.012034|
|         144|   -4.715675|   -7.200233|    0.824080|    0.012034|
|         145|   -4.715159|   -7.201809|    0.824079|    0.012034|
|         146|   -4.714093|   -7.203007|    0.824077|    0.012033|
|         147|   -4.712637|   -7.203899|    0.824076|    0.012033|
|         148|   -4.710939|   -7.204570|    0.824074|    0.012033|
|         149|   -4.709115|   -7.205104|    0.824071|    0.012032|
|         150|   -4.707234|   -7.205578|    0.824069|    0.012032|
|         151|   -4.705319|   -7.206061|    0.824066|    0.012031|
|         152|   -4.703356|   -7.206604|    0.824063|    0.012031|
|         153|   -4.701320|   -7.207235|    0.824059|    0.012030|
|         154|   -4.699179|   -7.207967|    0.824055|    0.012029|
|         155|   -4.696919|   -7.208795|    0.824051|    0.012028|
|         156|   -4.694539|   -7.209699|    0.824047|    0.012027|
|         157|   -4.692058|   -7.210643|    0.824042|    0.012026|
|         158|   -4.689511|   -7.211579|    0.824037|    0.012025|
|         159|   -4.686938|   -7.212453|    0.824032|    0.012023|
|         160|   -4.684384|   -7.213205|    0.824027|    0.012022|
|         161|   -4.681888|   -7.213779|    0.824021|    0.012021|
|         162|   -4.679485|   -7.214128|    0.824016|    0.012019|
|         163|   -4.677202|   -7.214207|    0.824010|    0.012018|
|         164|   -4.675059|   -7.213985|    0.824005|    0.012016|
|         165|   -4.673071|   -7.213452|    0.823999|    0.012014|
|         166|   -4.671247|   -7.212605|    0.823994|    0.012013|
|         167|   -4.669594|   -7.211460|    0.823989|    0.012011|
|         168|   -4.668115|   -7.210050|    0.823984|    0.012010|
|         169|   -4.666810|   -7.208424|    0.823979|    0.012008|
|         170|   -4.665676|   -7.206638|    0.823975|    0.012006|
|         171|   -4.664706|   -7.204757|    0.823971|    0.012005|
|         172|   -4.663894|   -7.202847|    0.823967|    0.012003|
|         173|   -4.663228|   -7.200972|    0.823964|    0.012002|
|         174|   -4.662697|   -7.199195|    0.823961|    0.012000|
|         175|   -4.662288|   -7.197567|    0.823958|    0.011999|
|         176|   -4.661992|   -7.196131|    0.823956|    0.011997|
|         177|   -4.661798|   -7.194927|    0.823955|    0.011996|
|         178|   -4.661700|   -7.193983|    0.823954|    0.011995|
|         179|   -4.661695|   -7.193318|    0.823953|    0.011993|
|         180|   -4.661784|   -7.192942|    0.823953|    0.011992|
|         181|   -4.661971|   -7.192852|    0.823953|    0.011991|
|         182|   -4.662265|   -7.193040|    0.823953|    0.011990|
|         183|   -4.662674|   -7.193491|    0.823954|    0.011989|
|         184|   -4.663213|   -7.194184|    0.823956|    0.011988|
|         185|   -4.663895|   -7.195092|    0.823958|    0.011987|
|         186|   -4.664733|   -7.196186|    0.823960|    0.011986|
|         187|   -4.665739|   -7.197437|    0.823962|    0.011985|
|         188|   -4.666924|   -7.198815|    0.823965|    0.011984|
|         189|   -4.668293|   -7.200287|    0.823968|    0.011983|
|         190|   -4.669847|   -7.201830|    0.823971|    0.011982|
|         191|   -4.671580|   -7.203420|    0.823974|    0.011981|
|         192|   -4.673482|   -7.205038|    0.823978|    0.011981|
|         193|   -4.675533|   -7.206669|    0.823982|    0.011980|
|         194|   -4.677707|   -7.208304|    0.823985|    0.011979|
|         195|   -4.679969|   -7.209937|    0.823989|    0.011979|
|         196|   -4.682282|   -7.211567|    0.823993|    0.011978|
|         197|   -4.684599|   -7.213199|    0.823997|    0.011978|
|         198|   -4.686870|   -7.214842|    0.824002|    0.011977|
|         199|   -4.689047|   -7.216504|    0.824006|    0.011977|
|         200|   -4.691078|   -7.218197|    0.824010|    0.011976|
|         201|   -4.692917|   -7.219934|    0.824014|    0.011975|
+-----------------------------------------------------------------------+
|Fixed CL Mode                           |Value                         |
+-----------------------------------------------------------------------+
|Current CL                              |0.824014                      |
|Target CL                               |0.824                         |
|Previous AOA                            |2.7697                        |
|Changed AoA by                          |-4.92743e-05                  |
+-----------------------------------------------------------------------+
+----------------------------------------------------------------+
|  Inner_Iter|    rms[Rho]|     rms[nu]|          CL|          CD|
+----------------------------------------------------------------+
|         202|   -4.427353|   -7.221200|    0.824018|    0.011975|
|         203|   -4.618601|   -7.223189|    0.824022|    0.011975|
|         204|   -4.663181|   -7.225145|    0.824026|    0.011974|
|         205|   -4.670543|   -7.227203|    0.824031|    0.011974|
|         206|   -4.676268|   -7.229387|    0.824035|    0.011974|
|         207|   -4.682873|   -7.231700|    0.824038|    0.011974|
|         208|   -4.688830|   -7.234142|    0.824042|    0.011974|
|         209|   -4.693048|   -7.236710|    0.824046|    0.011974|
|         210|   -4.695490|   -7.239399|    0.824050|    0.011974|
|         211|   -4.696715|   -7.242206|    0.824053|    0.011975|
|         212|   -4.697297|   -7.245125|    0.824057|    0.011975|
|         213|   -4.697617|   -7.248154|    0.824060|    0.011975|
|         214|   -4.697925|   -7.251290|    0.824063|    0.011976|
|         215|   -4.698417|   -7.254529|    0.824066|    0.011976|
|         216|   -4.699265|   -7.257870|    0.824069|    0.011977|
|         217|   -4.700605|   -7.261310|    0.824071|    0.011977|
|         218|   -4.702529|   -7.264845|    0.824074|    0.011978|
|         219|   -4.705088|   -7.268474|    0.824076|    0.011979|
|         220|   -4.708314|   -7.272196|    0.824078|    0.011980|
|         221|   -4.712237|   -7.276011|    0.824080|    0.011981|
|         222|   -4.716891|   -7.279920|    0.824082|    0.011981|
|         223|   -4.722307|   -7.283925|    0.824083|    0.011982|
|         224|   -4.728510|   -7.288032|    0.824084|    0.011983|
|         225|   -4.735508|   -7.292249|    0.824085|    0.011984|
|         226|   -4.743295|   -7.296586|    0.824086|    0.011986|
|         227|   -4.751852|   -7.301057|    0.824087|    0.011987|
|         228|   -4.761151|   -7.305676|    0.824087|    0.011988|
|         229|   -4.771152|   -7.310462|    0.824087|    0.011989|
|         230|   -4.781803|   -7.315431|    0.824088|    0.011990|
|         231|   -4.793041|   -7.320605|    0.824087|    0.011991|
|         232|   -4.804786|   -7.326004|    0.824087|    0.011993|
|         233|   -4.816943|   -7.331649|    0.824087|    0.011994|
|         234|   -4.829399|   -7.337561|    0.824087|    0.011995|
|         235|   -4.842023|   -7.343759|    0.824086|    0.011996|
|         236|   -4.854667|   -7.350260|    0.824085|    0.011997|
|         237|   -4.867167|   -7.357082|    0.824085|    0.011999|
|         238|   -4.879347|   -7.364235|    0.824084|    0.012000|
|         239|   -4.891026|   -7.371731|    0.824083|    0.012001|
|         240|   -4.902025|   -7.379575|    0.824082|    0.012002|
|         241|   -4.912178|   -7.387770|    0.824081|    0.012003|
|         242|   -4.921341|   -7.396314|    0.824080|    0.012004|
|         243|   -4.929403|   -7.405200|    0.824079|    0.012005|
|         244|   -4.936292|   -7.414417|    0.824078|    0.012006|
|         245|   -4.941981|   -7.423949|    0.824077|    0.012007|
|         246|   -4.946487|   -7.433776|    0.824076|    0.012008|
|         247|   -4.949869|   -7.443873|    0.824075|    0.012009|
|         248|   -4.952219|   -7.454215|    0.824074|    0.012010|
|         249|   -4.953658|   -7.464768|    0.824073|    0.012011|
|         250|   -4.954321|   -7.475499|    0.824072|    0.012012|
|         251|   -4.954351|   -7.486372|    0.824071|    0.012013|
|         252|   -4.953893|   -7.497349|    0.824070|    0.012014|
|         253|   -4.953088|   -7.508394|    0.824069|    0.012014|
|         254|   -4.952067|   -7.519472|    0.824068|    0.012015|
|         255|   -4.950951|   -7.530551|    0.824067|    0.012015|
|         256|   -4.949848|   -7.541601|    0.824065|    0.012016|
|         257|   -4.948852|   -7.552598|    0.824064|    0.012016|
|         258|   -4.948043|   -7.563520|    0.824063|    0.012017|
|         259|   -4.947492|   -7.574350|    0.824061|    0.012017|
|         260|   -4.947253|   -7.585074|    0.824060|    0.012018|
|         261|   -4.947373|   -7.595680|    0.824058|    0.012018|
|         262|   -4.947888|   -7.606157|    0.824056|    0.012018|
|         263|   -4.948827|   -7.616493|    0.824055|    0.012018|
|         264|   -4.950210|   -7.626672|    0.824053|    0.012018|
|         265|   -4.952052|   -7.636681|    0.824051|    0.012018|
|         266|   -4.954363|   -7.646490|    0.824049|    0.012018|
|         267|   -4.957147|   -7.656058|    0.824047|    0.012018|
|         268|   -4.960408|   -7.665336|    0.824045|    0.012018|
|         269|   -4.964141|   -7.674256|    0.824042|    0.012018|
|         270|   -4.968343|   -7.682736|    0.824040|    0.012018|
|         271|   -4.973005|   -7.690688|    0.824038|    0.012017|
|         272|   -4.978116|   -7.698007|    0.824035|    0.012017|
|         273|   -4.983662|   -7.704584|    0.824033|    0.012017|
|         274|   -4.989628|   -7.710307|    0.824031|    0.012016|
|         275|   -4.995993|   -7.715071|    0.824028|    0.012016|
|         276|   -5.002734|   -7.718787|    0.824026|    0.012015|
|         277|   -5.009827|   -7.721391|    0.824023|    0.012014|
|         278|   -5.017242|   -7.722847|    0.824021|    0.012014|
|         279|   -5.024948|   -7.723153|    0.824019|    0.012013|
|         280|   -5.032908|   -7.722346|    0.824017|    0.012012|
|         281|   -5.041082|   -7.720497|    0.824015|    0.012012|
|         282|   -5.049429|   -7.717716|    0.824012|    0.012011|
|         283|   -5.057902|   -7.714140|    0.824011|    0.012010|
|         284|   -5.066451|   -7.709920|    0.824009|    0.012009|
|         285|   -5.075026|   -7.705224|    0.824007|    0.012009|
|         286|   -5.083570|   -7.700222|    0.824006|    0.012008|
|         287|   -5.092030|   -7.695086|    0.824004|    0.012007|
|         288|   -5.100350|   -7.689980|    0.824003|    0.012006|
|         289|   -5.108475|   -7.685053|    0.824002|    0.012005|
|         290|   -5.116352|   -7.680444|    0.824001|    0.012004|
|         291|   -5.123933|   -7.676271|    0.824000|    0.012003|
|         292|   -5.131174|   -7.672637|    0.823999|    0.012002|
|         293|   -5.138037|   -7.669631|    0.823999|    0.012001|
|         294|   -5.144490|   -7.667325|    0.823999|    0.012000|
|         295|   -5.150511|   -7.665775|    0.823998|    0.012000|
|         296|   -5.156085|   -7.665025|    0.823998|    0.011999|
|         297|   -5.161205|   -7.665106|    0.823999|    0.011998|
|         298|   -5.165872|   -7.666036|    0.823999|    0.011997|
|         299|   -5.170093|   -7.667822|    0.823999|    0.011996|
|         300|   -5.173882|   -7.670459|    0.824000|    0.011995|
|         301|   -5.177258|   -7.673933|    0.824001|    0.011994|
|         302|   -5.180243|   -7.678219|    0.824002|    0.011994|
|         303|   -5.182859|   -7.683284|    0.824002|    0.011993|
|         304|   -5.185132|   -7.689081|    0.824004|    0.011992|
|         305|   -5.187085|   -7.695553|    0.824005|    0.011991|
|         306|   -5.188743|   -7.702633|    0.824006|    0.011991|
|         307|   -5.190126|   -7.710241|    0.824007|    0.011990|
|         308|   -5.191253|   -7.718286|    0.824009|    0.011989|
|         309|   -5.192143|   -7.726666|    0.824010|    0.011989|
|         310|   -5.192809|   -7.735275|    0.824012|    0.011988|
|         311|   -5.193266|   -7.743994|    0.824013|    0.011988|
|         312|   -5.193525|   -7.752702|    0.824015|    0.011987|
|         313|   -5.193597|   -7.761276|    0.824017|    0.011987|
|         314|   -5.193494|   -7.769596|    0.824018|    0.011987|
|         315|   -5.193226|   -7.777552|    0.824020|    0.011986|
|         316|   -5.192806|   -7.785047|    0.824022|    0.011986|
|         317|   -5.192247|   -7.792005|    0.824024|    0.011986|
|         318|   -5.191562|   -7.798367|    0.824025|    0.011985|
|         319|   -5.190769|   -7.804103|    0.824027|    0.011985|
|         320|   -5.189885|   -7.809207|    0.824029|    0.011985|
|         321|   -5.188930|   -7.813697|    0.824031|    0.011985|
|         322|   -5.187926|   -7.817614|    0.824033|    0.011985|
|         323|   -5.186895|   -7.821018|    0.824034|    0.011985|
|         324|   -5.185862|   -7.823982|    0.824036|    0.011985|
|         325|   -5.184851|   -7.826585|    0.824038|    0.011985|
|         326|   -5.183888|   -7.828909|    0.824040|    0.011985|
|         327|   -5.182997|   -7.831033|    0.824042|    0.011985|
|         328|   -5.182205|   -7.833029|    0.824044|    0.011985|
|         329|   -5.181535|   -7.834954|    0.824045|    0.011985|
|         330|   -5.181012|   -7.836853|    0.824047|    0.011986|
|         331|   -5.180658|   -7.838759|    0.824049|    0.011986|
|         332|   -5.180495|   -7.840689|    0.824051|    0.011986|
|         333|   -5.180543|   -7.842645|    0.824052|    0.011986|
|         334|   -5.180820|   -7.844615|    0.824054|    0.011987|
|         335|   -5.181342|   -7.846574|    0.824056|    0.011987|
|         336|   -5.182125|   -7.848485|    0.824057|    0.011987|
|         337|   -5.183181|   -7.850303|    0.824059|    0.011988|
|         338|   -5.184523|   -7.851978|    0.824061|    0.011988|
|         339|   -5.186159|   -7.853458|    0.824062|    0.011988|
|         340|   -5.188097|   -7.854690|    0.824064|    0.011989|
|         341|   -5.190343|   -7.855627|    0.824065|    0.011989|
|         342|   -5.192901|   -7.856228|    0.824066|    0.011990|
|         343|   -5.195772|   -7.856464|    0.824068|    0.011990|
|         344|   -5.198958|   -7.856319|    0.824069|    0.011991|
|         345|   -5.202455|   -7.855789|    0.824070|    0.011991|
|         346|   -5.206261|   -7.854888|    0.824071|    0.011992|
|         347|   -5.210369|   -7.853641|    0.824072|    0.011992|
|         348|   -5.214770|   -7.852091|    0.824073|    0.011992|
|         349|   -5.219454|   -7.850287|    0.824074|    0.011993|
|         350|   -5.224408|   -7.848288|    0.824075|    0.011993|
|         351|   -5.229615|   -7.846159|    0.824075|    0.011994|
|         352|   -5.235056|   -7.843969|    0.824076|    0.011994|
|         353|   -5.240708|   -7.841792|    0.824076|    0.011995|
|         354|   -5.246546|   -7.839695|    0.824077|    0.011995|
|         355|   -5.252541|   -7.837748|    0.824077|    0.011996|
|         356|   -5.258658|   -7.836012|    0.824077|    0.011996|
|         357|   -5.264862|   -7.834544|    0.824077|    0.011997|
|         358|   -5.271112|   -7.833395|    0.824077|    0.011997|
|         359|   -5.277364|   -7.832608|    0.824077|    0.011997|
|         360|   -5.283570|   -7.832217|    0.824077|    0.011998|
|         361|   -5.289680|   -7.832253|    0.824076|    0.011998|
|         362|   -5.295644|   -7.832732|    0.824076|    0.011998|
|         363|   -5.301406|   -7.833665|    0.824075|    0.011999|
|         364|   -5.306916|   -7.835053|    0.824074|    0.011999|
|         365|   -5.312120|   -7.836890|    0.824073|    0.011999|
|         366|   -5.316970|   -7.839164|    0.824073|    0.012000|
|         367|   -5.321421|   -7.841856|    0.824072|    0.012000|
|         368|   -5.325434|   -7.844937|    0.824070|    0.012000|
|         369|   -5.328979|   -7.848374|    0.824069|    0.012000|
|         370|   -5.332033|   -7.852124|    0.824068|    0.012001|
|         371|   -5.334582|   -7.856138|    0.824067|    0.012001|
|         372|   -5.336624|   -7.860360|    0.824065|    0.012001|
|         373|   -5.338168|   -7.864727|    0.824064|    0.012001|
|         374|   -5.339230|   -7.869170|    0.824062|    0.012001|
|         375|   -5.339840|   -7.873619|    0.824061|    0.012001|
|         376|   -5.340033|   -7.877998|    0.824059|    0.012002|
|         377|   -5.339854|   -7.882233|    0.824057|    0.012002|
|         378|   -5.339353|   -7.886247|    0.824055|    0.012002|
|         379|   -5.338582|   -7.889970|    0.824054|    0.012002|
|         380|   -5.337599|   -7.893335|    0.824052|    0.012002|
|         381|   -5.336461|   -7.896287|    0.824050|    0.012002|
|         382|   -5.335224|   -7.898780|    0.824048|    0.012002|
|         383|   -5.333945|   -7.900780|    0.824047|    0.012002|
|         384|   -5.332674|   -7.902268|    0.824045|    0.012002|
|         385|   -5.331462|   -7.903239|    0.824043|    0.012002|
|         386|   -5.330353|   -7.903701|    0.824041|    0.012002|
|         387|   -5.329388|   -7.903678|    0.824039|    0.012002|
|         388|   -5.328601|   -7.903202|    0.824038|    0.012002|
|         389|   -5.328025|   -7.902317|    0.824036|    0.012001|
|         390|   -5.327684|   -7.901076|    0.824034|    0.012001|
|         391|   -5.327599|   -7.899534|    0.824033|    0.012001|
|         392|   -5.327787|   -7.897751|    0.824031|    0.012001|
|         393|   -5.328260|   -7.895786|    0.824029|    0.012001|
|         394|   -5.329025|   -7.893696|    0.824028|    0.012001|
|         395|   -5.330085|   -7.891535|    0.824027|    0.012001|
|         396|   -5.331441|   -7.889352|    0.824025|    0.012001|
|         397|   -5.333089|   -7.887191|    0.824024|    0.012000|
|         398|   -5.335021|   -7.885086|    0.824023|    0.012000|
|         399|   -5.337229|   -7.883068|    0.824021|    0.012000|
|         400|   -5.339700|   -7.881158|    0.824020|    0.012000|
|         401|   -5.342420|   -7.879370|    0.824019|    0.011998|
+-----------------------------------------------------------------------+
|Fixed CL Mode                           |Value                         |
+-----------------------------------------------------------------------+
|Current CL                              |0.824019                      |
|Target CL                               |0.824                         |
|Previous AOA                            |2.76965                       |
|Changed AoA by                          |-0.00010167                   |
+-----------------------------------------------------------------------+
+----------------------------------------------------------------+
|  Inner_Iter|    rms[Rho]|     rms[nu]|          CL|          CD|
+----------------------------------------------------------------+
|         402|   -4.185309|   -7.845571|    0.824018|    0.011998|
|         403|   -4.565333|   -7.859667|    0.824017|    0.011998|
|         404|   -4.796728|   -7.863355|    0.824017|    0.011998|
|         405|   -4.866404|   -7.864932|    0.824016|    0.011997|
|         406|   -4.912748|   -7.865674|    0.824015|    0.011997|
|         407|   -4.971982|   -7.865923|    0.824015|    0.011997|
|         408|   -5.042043|   -7.865849|    0.824014|    0.011997|
|         409|   -5.110355|   -7.865583|    0.824014|    0.011997|
|         410|   -5.164938|   -7.865218|    0.824013|    0.011996|
|         411|   -5.202925|   -7.864798|    0.824013|    0.011996|
|         412|   -5.227958|   -7.864354|    0.824013|    0.011996|
|         413|   -5.243622|   -7.863925|    0.824013|    0.011996|
|         414|   -5.252483|   -7.863556|    0.824012|    0.011996|
|         415|   -5.257679|   -7.863270|    0.824012|    0.011995|
|         416|   -5.262707|   -7.863072|    0.824012|    0.011995|
|         417|   -5.270011|   -7.862952|    0.824013|    0.011995|
|         418|   -5.280193|   -7.862901|    0.824013|    0.011995|
|         419|   -5.292320|   -7.862925|    0.824013|    0.011995|
|         420|   -5.304864|   -7.863038|    0.824013|    0.011995|
|         421|   -5.316693|   -7.863252|    0.824014|    0.011994|
|         422|   -5.327553|   -7.863579|    0.824014|    0.011994|
|         423|   -5.337851|   -7.864025|    0.824014|    0.011994|
|         424|   -5.348089|   -7.864596|    0.824015|    0.011994|
|         425|   -5.358432|   -7.865301|    0.824015|    0.011994|
|         426|   -5.368634|   -7.866148|    0.824016|    0.011994|
|         427|   -5.378225|   -7.867151|    0.824017|    0.011994|
|         428|   -5.386744|   -7.868323|    0.824017|    0.011994|
|         429|   -5.393897|   -7.869676|    0.824018|    0.011994|
|         430|   -5.399600|   -7.871221|    0.824019|    0.011994|
|         431|   -5.403966|   -7.872961|    0.824019|    0.011994|
|         432|   -5.407267|   -7.874896|    0.824020|    0.011993|
|         433|   -5.409876|   -7.877019|    0.824021|    0.011993|
|         434|   -5.412194|   -7.879313|    0.824022|    0.011993|
|         435|   -5.414564|   -7.881753|    0.824023|    0.011993|
|         436|   -5.417202|   -7.884308|    0.824024|    0.011993|
|         437|   -5.420164|   -7.886939|    0.824025|    0.011993|
|         438|   -5.423352|   -7.889603|    0.824026|    0.011994|
|         439|   -5.426545|   -7.892252|    0.824026|    0.011994|
|         440|   -5.429452|   -7.894833|    0.824027|    0.011994|
|         441|   -5.431773|   -7.897299|    0.824028|    0.011994|
|         442|   -5.433264|   -7.899599|    0.824029|    0.011994|
|         443|   -5.433793|   -7.901687|    0.824030|    0.011994|
|         444|   -5.433369|   -7.903522|    0.824031|    0.011994|
|         445|   -5.432132|   -7.905066|    0.824032|    0.011994|
|         446|   -5.430310|   -7.906289|    0.824033|    0.011994|
|         447|   -5.428165|   -7.907164|    0.824033|    0.011994|
|         448|   -5.425934|   -7.907676|    0.824034|    0.011994|
|         449|   -5.423791|   -7.907816|    0.824035|    0.011994|
|         450|   -5.421837|   -7.907581|    0.824036|    0.011995|
|         451|   -5.420103|   -7.906981|    0.824036|    0.011995|
|         452|   -5.418571|   -7.906034|    0.824037|    0.011995|
|         453|   -5.417200|   -7.904766|    0.824037|    0.011995|
|         454|   -5.415950|   -7.903213|    0.824038|    0.011995|
|         455|   -5.414796|   -7.901418|    0.824038|    0.011995|
|         456|   -5.413740|   -7.899429|    0.824039|    0.011995|
|         457|   -5.412807|   -7.897303|    0.824039|    0.011995|
|         458|   -5.412041|   -7.895096|    0.824039|    0.011996|
|         459|   -5.411493|   -7.892866|    0.824039|    0.011996|
|         460|   -5.411216|   -7.890672|    0.824039|    0.011996|
|         461|   -5.411256|   -7.888573|    0.824039|    0.011996|
|         462|   -5.411645|   -7.886626|    0.824039|    0.011996|
|         463|   -5.412408|   -7.884884|    0.824039|    0.011996|
|         464|   -5.413555|   -7.883395|    0.824039|    0.011996|
|         465|   -5.415092|   -7.882201|    0.824039|    0.011996|
|         466|   -5.417015|   -7.881338|    0.824038|    0.011996|
|         467|   -5.419322|   -7.880835|    0.824038|    0.011997|
|         468|   -5.422005|   -7.880714|    0.824037|    0.011997|
|         469|   -5.425057|   -7.880986|    0.824037|    0.011997|
|         470|   -5.428469|   -7.881659|    0.824036|    0.011997|
|         471|   -5.432231|   -7.882730|    0.824036|    0.011997|
|         472|   -5.436328|   -7.884188|    0.824035|    0.011997|
|         473|   -5.440745|   -7.886013|    0.824035|    0.011997|
|         474|   -5.445461|   -7.888177|    0.824034|    0.011997|
|         475|   -5.450451|   -7.890648|    0.824033|    0.011997|
|         476|   -5.455686|   -7.893381|    0.824032|    0.011997|
|         477|   -5.461133|   -7.896331|    0.824032|    0.011997|
|         478|   -5.466755|   -7.899443|    0.824031|    0.011997|
|         479|   -5.472511|   -7.902661|    0.824030|    0.011997|
|         480|   -5.478357|   -7.905928|    0.824030|    0.011997|
|         481|   -5.484245|   -7.909185|    0.824029|    0.011997|
|         482|   -5.490123|   -7.912377|    0.824028|    0.011997|
|         483|   -5.495938|   -7.915451|    0.824028|    0.011997|
|         484|   -5.501636|   -7.918364|    0.824027|    0.011996|
|         485|   -5.507160|   -7.921079|    0.824026|    0.011996|
|         486|   -5.512455|   -7.923570|    0.824026|    0.011996|
|         487|   -5.517467|   -7.925822|    0.824025|    0.011996|
|         488|   -5.522146|   -7.927831|    0.824025|    0.011996|
|         489|   -5.526444|   -7.929606|    0.824024|    0.011996|
|         490|   -5.530321|   -7.931166|    0.824024|    0.011996|
|         491|   -5.533744|   -7.932535|    0.824023|    0.011996|
|         492|   -5.536686|   -7.933750|    0.824023|    0.011996|
|         493|   -5.539131|   -7.934849|    0.824023|    0.011995|
|         494|   -5.541072|   -7.935879|    0.824022|    0.011995|
|         495|   -5.542511|   -7.936886|    0.824022|    0.011995|
|         496|   -5.543460|   -7.937917|    0.824021|    0.011995|
|         497|   -5.543940|   -7.939017|    0.824021|    0.011995|
|         498|   -5.543978|   -7.940224|    0.824021|    0.011995|
|         499|   -5.543611|   -7.941574|    0.824021|    0.011994|
|         500|   -5.542879|   -7.943092|    0.824020|    0.011994|
|         501|   -5.541829|   -7.944801|    0.824020|    0.011993|
+-----------------------------------------------------------------------+
|Fixed CL Mode                           |Value                         |
+-----------------------------------------------------------------------+
|Current CL                              |0.82402                       |
|Target CL                               |0.824                         |
|Previous AOA                            |2.76955                       |
|Changed AoA by                          |-0.000102065                  |
+-----------------------------------------------------------------------+
+----------------------------------------------------------------+
|  Inner_Iter|    rms[Rho]|     rms[nu]|          CL|          CD|
+----------------------------------------------------------------+
|         502|   -4.184377|   -7.905934|    0.824020|    0.011992|
|         503|   -4.568728|   -7.928306|    0.824020|    0.011992|
|         504|   -4.810935|   -7.936923|    0.824020|    0.011992|
|         505|   -4.885883|   -7.942848|    0.824020|    0.011992|
|         506|   -4.934766|   -7.947835|    0.824019|    0.011992|
|         507|   -4.997840|   -7.952294|    0.824019|    0.011992|
|         508|   -5.074067|   -7.956379|    0.824019|    0.011991|
|         509|   -5.149990|   -7.960198|    0.824019|    0.011991|
|         510|   -5.211066|   -7.963827|    0.824019|    0.011991|
|         511|   -5.252557|   -7.967296|    0.824019|    0.011991|
|         512|   -5.278309|   -7.970620|    0.824019|    0.011991|
|         513|   -5.292838|   -7.973841|    0.824019|    0.011991|
|         514|   -5.299576|   -7.977015|    0.824019|    0.011990|
|         515|   -5.302531|   -7.980169|    0.824019|    0.011990|
|         516|   -5.305916|   -7.983288|    0.824019|    0.011990|
|         517|   -5.312497|   -7.986336|    0.824019|    0.011990|
|         518|   -5.322801|   -7.989269|    0.824020|    0.011990|
|         519|   -5.335553|   -7.992054|    0.824020|    0.011990|
|         520|   -5.348806|   -7.994667|    0.824020|    0.011990|
|         521|   -5.361145|   -7.997082|    0.824020|    0.011990|
|         522|   -5.372289|   -7.999268|    0.824020|    0.011990|
|         523|   -5.382835|   -8.001186|    0.824020|    0.011989|
|         524|   -5.393539|   -8.002796|    0.824020|    0.011989|
|         525|   -5.404754|   -8.004067|    0.824020|    0.011989|
|         526|   -5.416317|   -8.004985|    0.824020|    0.011989|
|         527|   -5.427735|   -8.005549|    0.824020|    0.011989|
|         528|   -5.438460|   -8.005778|    0.824020|    0.011989|
|         529|   -5.448071|   -8.005703|    0.824021|    0.011989|
|         530|   -5.456352|   -8.005362|    0.824021|    0.011989|
|         531|   -5.463317|   -8.004802|    0.824021|    0.011989|
|         532|   -5.469203|   -8.004070|    0.824021|    0.011989|
|         533|   -5.474430|   -8.003209|    0.824021|    0.011990|
|         534|   -5.479524|   -8.002261|    0.824021|    0.011990|
|         535|   -5.484995|   -8.001264|    0.824021|    0.011990|
|         536|   -5.491236|   -8.000248|    0.824021|    0.011990|
|         537|   -5.498449|   -7.999243|    0.824021|    0.011990|
|         538|   -5.506630|   -7.998271|    0.824021|    0.011990|
|         539|   -5.515574|   -7.997351|    0.824021|    0.011990|
|         540|   -5.524918|   -7.996503|    0.824021|    0.011990|
|         541|   -5.534204|   -7.995742|    0.824021|    0.011990|
|         542|   -5.542969|   -7.995083|    0.824020|    0.011991|
|         543|   -5.550842|   -7.994536|    0.824020|    0.011991|
|         544|   -5.557627|   -7.994106|    0.824020|    0.011991|
|         545|   -5.563341|   -7.993805|    0.824020|    0.011991|
|         546|   -5.568182|   -7.993642|    0.824020|    0.011991|
|         547|   -5.572454|   -7.993619|    0.824020|    0.011992|
|         548|   -5.576468|   -7.993737|    0.824019|    0.011992|
|         549|   -5.580461|   -7.993993|    0.824019|    0.011992|
|         550|   -5.584547|   -7.994377|    0.824019|    0.011992|
|         551|   -5.588714|   -7.994878|    0.824018|    0.011992|
|         552|   -5.592843|   -7.995484|    0.824018|    0.011993|
|         553|   -5.596761|   -7.996179|    0.824017|    0.011993|
|         554|   -5.600281|   -7.996946|    0.824017|    0.011993|
|         555|   -5.603257|   -7.997774|    0.824017|    0.011993|
|         556|   -5.605605|   -7.998656|    0.824016|    0.011994|
|         557|   -5.607315|   -7.999575|    0.824015|    0.011994|
|         558|   -5.608439|   -8.000511|    0.824015|    0.011994|
|         559|   -5.609073|   -8.001448|    0.824014|    0.011994|
|         560|   -5.609332|   -8.002375|    0.824013|    0.011995|
|         561|   -5.609327|   -8.003280|    0.824013|    0.011995|
|         562|   -5.609151|   -8.004155|    0.824012|    0.011995|
|         563|   -5.608880|   -8.005006|    0.824011|    0.011995|
|         564|   -5.608568|   -8.005845|    0.824010|    0.011996|
|         565|   -5.608255|   -8.006693|    0.824010|    0.011996|
|         566|   -5.607975|   -8.007556|    0.824009|    0.011996|
|         567|   -5.607756|   -8.008444|    0.824008|    0.011996|
|         568|   -5.607630|   -8.009374|    0.824007|    0.011996|
|         569|   -5.607629|   -8.010366|    0.824006|    0.011997|
|         570|   -5.607785|   -8.011442|    0.824005|    0.011997|
|         571|   -5.608132|   -8.012622|    0.824004|    0.011997|
|         572|   -5.608701|   -8.013925|    0.824003|    0.011997|
|         573|   -5.609520|   -8.015364|    0.824002|    0.011997|
|         574|   -5.610613|   -8.016952|    0.824001|    0.011998|
|         575|   -5.612001|   -8.018697|    0.824000|    0.011998|
|         576|   -5.613701|   -8.020599|    0.824000|    0.011998|
|         577|   -5.615726|   -8.022657|    0.823999|    0.011998|
|         578|   -5.618087|   -8.024861|    0.823998|    0.011998|
|         579|   -5.620792|   -8.027192|    0.823997|    0.011998|
|         580|   -5.623847|   -8.029628|    0.823996|    0.011998|
|         581|   -5.627257|   -8.032143|    0.823996|    0.011998|
|         582|   -5.631021|   -8.034705|    0.823995|    0.011998|
|         583|   -5.635140|   -8.037282|    0.823994|    0.011998|
|         584|   -5.639609|   -8.039840|    0.823994|    0.011998|
|         585|   -5.644422|   -8.042347|    0.823993|    0.011998|
|         586|   -5.649570|   -8.044773|    0.823993|    0.011998|
|         587|   -5.655040|   -8.047091|    0.823992|    0.011998|
|         588|   -5.660817|   -8.049279|    0.823992|    0.011998|
|         589|   -5.666882|   -8.051322|    0.823991|    0.011998|
|         590|   -5.673213|   -8.053215|    0.823991|    0.011998|
|         591|   -5.679785|   -8.054956|    0.823991|    0.011998|
|         592|   -5.686567|   -8.056554|    0.823990|    0.011998|
|         593|   -5.693525|   -8.058025|    0.823990|    0.011998|
|         594|   -5.700623|   -8.059392|    0.823990|    0.011998|
|         595|   -5.707817|   -8.060679|    0.823990|    0.011998|
|         596|   -5.715062|   -8.061918|    0.823990|    0.011998|
|         597|   -5.722307|   -8.063141|    0.823990|    0.011997|
|         598|   -5.729498|   -8.064385|    0.823990|    0.011997|
|         599|   -5.736579|   -8.065687|    0.823990|    0.011997|
|         600|   -5.743490|   -8.067081|    0.823990|    0.011997|
|         601|   -5.750170|   -8.068602|    0.823990|    0.011997|
+-----------------------------------------------------------------------+
|Fixed CL Mode                           |Value                         |
+-----------------------------------------------------------------------+
|Current CL                              |0.82399                       |
|Target CL                               |0.824                         |
|Previous AOA                            |2.76945                       |
|Changed AoA by                          |5.10412e-05                   |
+-----------------------------------------------------------------------+
+----------------------------------------------------------------+
|  Inner_Iter|    rms[Rho]|     rms[nu]|          CL|          CD|
+----------------------------------------------------------------+
|         602|   -4.484670|   -8.050392|    0.823990|    0.011997|
|         603|   -4.865884|   -8.061752|    0.823990|    0.011997|
|         604|   -5.103326|   -8.066561|    0.823990|    0.011997|
|         605|   -5.179522|   -8.070277|    0.823990|    0.011996|
|         606|   -5.231249|   -8.073774|    0.823990|    0.011996|
|         607|   -5.296628|   -8.077272|    0.823991|    0.011996|
|         608|   -5.374454|   -8.080840|    0.823991|    0.011996|
|         609|   -5.451150|   -8.084506|    0.823991|    0.011995|
|         610|   -5.511957|   -8.088256|    0.823991|    0.011995|
|         611|   -5.552188|   -8.092067|    0.823991|    0.011995|
|         612|   -5.576018|   -8.095920|    0.823991|    0.011995|
|         613|   -5.588346|   -8.099818|    0.823992|    0.011994|
|         614|   -5.592956|   -8.103772|    0.823992|    0.011994|
|         615|   -5.594060|   -8.107788|    0.823992|    0.011994|
|         616|   -5.595853|   -8.111853|    0.823992|    0.011994|
|         617|   -5.600925|   -8.115950|    0.823992|    0.011993|
|         618|   -5.609586|   -8.120063|    0.823993|    0.011993|
|         619|   -5.620356|   -8.124167|    0.823993|    0.011993|
|         620|   -5.631122|   -8.128262|    0.823993|    0.011993|
|         621|   -5.640338|   -8.132357|    0.823993|    0.011992|
|         622|   -5.647642|   -8.136460|    0.823993|    0.011992|
|         623|   -5.653601|   -8.140574|    0.823993|    0.011992|
|         624|   -5.659021|   -8.144702|    0.823993|    0.011992|
|         625|   -5.664409|   -8.148844|    0.823994|    0.011992|
|         626|   -5.669869|   -8.152999|    0.823994|    0.011991|
|         627|   -5.675250|   -8.157171|    0.823994|    0.011991|
|         628|   -5.680343|   -8.161359|    0.823994|    0.011991|
|         629|   -5.684989|   -8.165563|    0.823994|    0.011991|
|         630|   -5.689106|   -8.169772|    0.823994|    0.011991|
|         631|   -5.692695|   -8.173976|    0.823994|    0.011991|
|         632|   -5.695856|   -8.178161|    0.823994|    0.011991|
|         633|   -5.698786|   -8.182315|    0.823994|    0.011990|
|         634|   -5.701760|   -8.186420|    0.823994|    0.011990|
|         635|   -5.705072|   -8.190463|    0.823994|    0.011990|
|         636|   -5.708972|   -8.194418|    0.823994|    0.011990|
|         637|   -5.713621|   -8.198272|    0.823994|    0.011990|
|         638|   -5.719070|   -8.202014|    0.823994|    0.011990|
|         639|   -5.725260|   -8.205629|    0.823994|    0.011990|
|         640|   -5.732041|   -8.209106|    0.823994|    0.011990|
|         641|   -5.739204|   -8.212435|    0.823995|    0.011990|
|         642|   -5.746532|   -8.215608|    0.823995|    0.011990|
|         643|   -5.753848|   -8.218625|    0.823995|    0.011990|
|         644|   -5.761059|   -8.221487|    0.823995|    0.011990|
|         645|   -5.768176|   -8.224202|    0.823995|    0.011990|
|         646|   -5.775307|   -8.226784|    0.823995|    0.011990|
|         647|   -5.782616|   -8.229249|    0.823995|    0.011990|
|         648|   -5.790282|   -8.231617|    0.823996|    0.011991|
|         649|   -5.798443|   -8.233912|    0.823996|    0.011991|
|         650|   -5.807175|   -8.236161|    0.823996|    0.011991|
|         651|   -5.816472|   -8.238395|    0.823997|    0.011991|
|         652|   -5.826257|   -8.240642|    0.823997|    0.011991|
|         653|   -5.836403|   -8.242936|    0.823997|    0.011991|
|         654|   -5.846757|   -8.245306|    0.823998|    0.011992|
|         655|   -5.857167|   -8.247782|    0.823998|    0.011992|
|         656|   -5.867507|   -8.250399|    0.823998|    0.011992|
|         657|   -5.877687|   -8.253172|    0.823999|    0.011992|
|         658|   -5.887653|   -8.256113|    0.823999|    0.011992|
|         659|   -5.897381|   -8.259225|    0.824000|    0.011993|
|         660|   -5.906864|   -8.262499|    0.824000|    0.011993|
|         661|   -5.916094|   -8.265929|    0.824001|    0.011993|
|         662|   -5.925058|   -8.269516|    0.824001|    0.011994|
|         663|   -5.933723|   -8.273247|    0.824002|    0.011994|
|         664|   -5.942044|   -8.277099|    0.824002|    0.011994|
|         665|   -5.949962|   -8.281038|    0.824003|    0.011994|
|         666|   -5.957417|   -8.285019|    0.824004|    0.011995|
|         667|   -5.964350|   -8.288991|    0.824004|    0.011995|
|         668|   -5.970711|   -8.292895|    0.824005|    0.011995|
|         669|   -5.976463|   -8.296669|    0.824005|    0.011996|
|         670|   -5.981586|   -8.300248|    0.824006|    0.011996|
|         671|   -5.986073|   -8.303570|    0.824006|    0.011996|
|         672|   -5.989931|   -8.306580|    0.824006|    0.011997|
|         673|   -5.993179|   -8.309235|    0.824007|    0.011997|
|         674|   -5.995847|   -8.311523|    0.824007|    0.011997|
|         675|   -5.997976|   -8.313417|    0.824007|    0.011997|
|         676|   -5.999612|   -8.314907|    0.824008|    0.011998|
|         677|   -6.000810|   -8.316001|    0.824008|    0.011998|
|         678|   -6.001633|   -8.316720|    0.824008|    0.011998|
|         679|   -6.002145|   -8.317105|    0.824008|    0.011998|
|         680|   -6.002415|   -8.317211|    0.824008|    0.011999|
|         681|   -6.002515|   -8.317102|    0.824008|    0.011999|
|         682|   -6.002515|   -8.316848|    0.824008|    0.011999|
|         683|   -6.002483|   -8.316529|    0.824008|    0.011999|
|         684|   -6.002485|   -8.316230|    0.824008|    0.011999|
|         685|   -6.002583|   -8.316039|    0.824008|    0.012000|
|         686|   -6.002834|   -8.316025|    0.824008|    0.012000|
|         687|   -6.003292|   -8.316277|    0.824008|    0.012000|
|         688|   -6.004004|   -8.316843|    0.824007|    0.012000|
|         689|   -6.005013|   -8.317769|    0.824007|    0.012000|
|         690|   -6.006356|   -8.319088|    0.824007|    0.012000|
|         691|   -6.008065|   -8.320820|    0.824006|    0.012000|
|         692|   -6.010168|   -8.322975|    0.824006|    0.012000|
|         693|   -6.012688|   -8.325554|    0.824005|    0.012000|
|         694|   -6.015644|   -8.328546|    0.824005|    0.012000|
|         695|   -6.019048|   -8.331931|    0.824004|    0.012000|
|         696|   -6.022911|   -8.335674|    0.824004|    0.012000|
|         697|   -6.027238|   -8.339733|    0.824003|    0.012000|
|         698|   -6.032031|   -8.344053|    0.824003|    0.012000|
|         699|   -6.037285|   -8.348570|    0.824002|    0.012000|
|         700|   -6.042995|   -8.353215|    0.824002|    0.012000|
|         701|   -6.049150|   -8.357910|    0.824001|    0.012000|
+-----------------------------------------------------------------------+
|Fixed CL Mode                           |Value                         |
+-----------------------------------------------------------------------+
|Current CL                              |0.824001                      |
|Target CL                               |0.824                         |
|Previous AOA                            |2.7695                        |
|Changed AoA by                          |-7.90012e-06                  |
+-----------------------------------------------------------------------+
+----------------------------------------------------------------+
|  Inner_Iter|    rms[Rho]|     rms[nu]|          CL|          CD|
+----------------------------------------------------------------+
|         702|   -5.290288|   -8.361152|    0.824000|    0.012000|
|         703|   -5.654158|   -8.366548|    0.824000|    0.012000|
|         704|   -5.857021|   -8.371095|    0.823999|    0.012000|
|         705|   -5.912506|   -8.375275|    0.823999|    0.012000|
|         706|   -5.944221|   -8.379107|    0.823998|    0.012000|
|         707|   -5.980128|   -8.382545|    0.823998|    0.012000|
|         708|   -6.017691|   -8.385541|    0.823997|    0.011999|
|         709|   -6.049425|   -8.388057|    0.823997|    0.011999|
|         710|   -6.071781|   -8.390075|    0.823996|    0.011999|
|         711|   -6.086574|   -8.391593|    0.823996|    0.011999|
|         712|   -6.097006|   -8.392629|    0.823995|    0.011999|
|         713|   -6.105086|   -8.393216|    0.823995|    0.011999|
|         714|   -6.111903|   -8.393392|    0.823994|    0.011998|
|         715|   -6.118406|   -8.393202|    0.823994|    0.011998|
|         716|   -6.125488|   -8.392697|    0.823994|    0.011998|
|         717|   -6.133644|   -8.391933|    0.823993|    0.011998|
|         718|   -6.142738|   -8.390964|    0.823993|    0.011998|
|         719|   -6.152138|   -8.389847|    0.823992|    0.011997|
|         720|   -6.161079|   -8.388635|    0.823992|    0.011997|
|         721|   -6.169048|   -8.387377|    0.823992|    0.011997|
|         722|   -6.175937|   -8.386121|    0.823992|    0.011997|
|         723|   -6.181949|   -8.384906|    0.823991|    0.011996|
|         724|   -6.187377|   -8.383768|    0.823991|    0.011996|
|         725|   -6.192432|   -8.382737|    0.823991|    0.011996|
|         726|   -6.197192|   -8.381833|    0.823991|    0.011996|
|         727|   -6.201636|   -8.381080|    0.823991|    0.011996|
|         728|   -6.205697|   -8.380502|    0.823991|    0.011995|
|         729|   -6.209304|   -8.380110|    0.823991|    0.011995|
|         730|   -6.212403|   -8.379921|    0.823990|    0.011995|
|         731|   -6.214973|   -8.379947|    0.823990|    0.011995|
|         732|   -6.217041|   -8.380203|    0.823990|    0.011994|
|         733|   -6.218682|   -8.380703|    0.823990|    0.011994|
|         734|   -6.220016|   -8.381460|    0.823991|    0.011994|
|         735|   -6.221180|   -8.382489|    0.823991|    0.011994|
|         736|   -6.222303|   -8.383802|    0.823991|    0.011994|
|         737|   -6.223485|   -8.385414|    0.823991|    0.011993|
|         738|   -6.224782|   -8.387336|    0.823991|    0.011993|
|         739|   -6.226210|   -8.389580|    0.823991|    0.011993|
|         740|   -6.227749|   -8.392155|    0.823991|    0.011993|
|         741|   -6.229357|   -8.395068|    0.823991|    0.011993|
|         742|   -6.230986|   -8.398322|    0.823992|    0.011993|
|         743|   -6.232599|   -8.401920|    0.823992|    0.011992|
|         744|   -6.234181|   -8.405861|    0.823992|    0.011992|
|         745|   -6.235741|   -8.410142|    0.823992|    0.011992|
|         746|   -6.237309|   -8.414750|    0.823992|    0.011992|
|         747|   -6.238926|   -8.419668|    0.823993|    0.011992|
|         748|   -6.240631|   -8.424889|    0.823993|    0.011992|
|         749|   -6.242453|   -8.430402|    0.823993|    0.011992|
|         750|   -6.244399|   -8.436195|    0.823993|    0.011992|
|         751|   -6.246459|   -8.442251|    0.823994|    0.011992|
|         752|   -6.248606|   -8.448554|    0.823994|    0.011992|
|         753|   -6.250801|   -8.455085|    0.823994|    0.011992|
|         754|   -6.253004|   -8.461822|    0.823994|    0.011992|
|         755|   -6.255171|   -8.468746|    0.823995|    0.011992|
|         756|   -6.257267|   -8.475834|    0.823995|    0.011992|
|         757|   -6.259262|   -8.483063|    0.823995|    0.011992|
|         758|   -6.261134|   -8.490409|    0.823995|    0.011992|
|         759|   -6.262865|   -8.497848|    0.823995|    0.011992|
|         760|   -6.264441|   -8.505357|    0.823996|    0.011992|
|         761|   -6.265848|   -8.512912|    0.823996|    0.011992|
|         762|   -6.267074|   -8.520487|    0.823996|    0.011992|
|         763|   -6.268107|   -8.528058|    0.823996|    0.011992|
|         764|   -6.268935|   -8.535600|    0.823996|    0.011992|
|         765|   -6.269547|   -8.543084|    0.823996|    0.011992|
|         766|   -6.269934|   -8.550485|    0.823996|    0.011992|
|         767|   -6.270090|   -8.557772|    0.823996|    0.011992|
|         768|   -6.270013|   -8.564917|    0.823997|    0.011992|
|         769|   -6.269704|   -8.571886|    0.823997|    0.011993|
|         770|   -6.269166|   -8.578649|    0.823997|    0.011993|
|         771|   -6.268409|   -8.585174|    0.823997|    0.011993|
|         772|   -6.267443|   -8.591428|    0.823997|    0.011993|
|         773|   -6.266280|   -8.597381|    0.823997|    0.011993|
|         774|   -6.264938|   -8.603004|    0.823997|    0.011993|
|         775|   -6.263432|   -8.608274|    0.823997|    0.011994|
|         776|   -6.261783|   -8.613169|    0.823997|    0.011994|
|         777|   -6.260011|   -8.617677|    0.823997|    0.011994|
|         778|   -6.258137|   -8.621787|    0.823997|    0.011994|
|         779|   -6.256183|   -8.625501|    0.823997|    0.011994|
|         780|   -6.254173|   -8.628825|    0.823997|    0.011994|
|         781|   -6.252127|   -8.631771|    0.823997|    0.011995|
|         782|   -6.250069|   -8.634362|    0.823997|    0.011995|
|         783|   -6.248021|   -8.636625|    0.823997|    0.011995|
|         784|   -6.246002|   -8.638591|    0.823997|    0.011995|
|         785|   -6.244033|   -8.640297|    0.823997|    0.011995|
|         786|   -6.242134|   -8.641782|    0.823997|    0.011996|
|         787|   -6.240320|   -8.643086|    0.823997|    0.011996|
|         788|   -6.238609|   -8.644249|    0.823997|    0.011996|
|         789|   -6.237014|   -8.645314|    0.823997|    0.011996|
|         790|   -6.235548|   -8.646321|    0.823997|    0.011996|
|         791|   -6.234222|   -8.647305|    0.823997|    0.011997|
|         792|   -6.233042|   -8.648297|    0.823997|    0.011997|
|         793|   -6.232016|   -8.649327|    0.823997|    0.011997|
|         794|   -6.231145|   -8.650424|    0.823997|    0.011997|
|         795|   -6.230431|   -8.651612|    0.823997|    0.011997|
|         796|   -6.229871|   -8.652930|    0.823997|    0.011997|
|         797|   -6.229460|   -8.654402|    0.823997|    0.011998|
|         798|   -6.229189|   -8.656044|    0.823997|    0.011998|
|         799|   -6.229047|   -8.657870|    0.823997|    0.011998|
|         800|   -6.229019|   -8.659894|    0.823997|    0.011998|
|         801|   -6.229088|   -8.662129|    0.823997|    0.011998|
+-----------------------------------------------------------------------+
|Fixed CL Mode                           |Value                         |
+-----------------------------------------------------------------------+
|Current CL                              |0.823997                      |
|Target CL                               |0.824                         |
|Previous AOA                            |2.76949                       |
|Changed AoA by                          |1.63895e-05                   |
+-----------------------------------------------------------------------+
+----------------------------------------------------------------+
|  Inner_Iter|    rms[Rho]|     rms[nu]|          CL|          CD|
+----------------------------------------------------------------+
|         802|   -4.977888|   -8.632881|    0.823997|    0.011998|
|         803|   -5.356652|   -8.650275|    0.823996|    0.011999|
|         804|   -5.586444|   -8.657710|    0.823996|    0.011999|
|         805|   -5.657765|   -8.663348|    0.823996|    0.011999|
|         806|   -5.706967|   -8.668507|    0.823996|    0.011999|
|         807|   -5.769655|   -8.673542|    0.823996|    0.011999|
|         808|   -5.844104|   -8.678605|    0.823996|    0.011999|
|         809|   -5.917630|   -8.683790|    0.823996|    0.011999|
|         810|   -5.977140|   -8.689141|    0.823995|    0.011999|
|         811|   -6.018511|   -8.694651|    0.823995|    0.011999|
|         812|   -6.044967|   -8.700295|    0.823995|    0.011999|
|         813|   -6.060233|   -8.706062|    0.823995|    0.011999|
|         814|   -6.067268|   -8.711953|    0.823995|    0.011999|
|         815|   -6.069788|   -8.717953|    0.823994|    0.011999|
|         816|   -6.071817|   -8.724020|    0.823994|    0.011999|
|         817|   -6.076040|   -8.730107|    0.823994|    0.011999|
|         818|   -6.083026|   -8.736163|    0.823994|    0.011999|
|         819|   -6.091666|   -8.742155|    0.823994|    0.011999|
|         820|   -6.100258|   -8.748056|    0.823994|    0.011999|
|         821|   -6.107584|   -8.753840|    0.823993|    0.011999|
|         822|   -6.113387|   -8.759463|    0.823993|    0.011999|
|         823|   -6.118117|   -8.764880|    0.823993|    0.011999|
|         824|   -6.122340|   -8.770028|    0.823993|    0.011999|
|         825|   -6.126329|   -8.774840|    0.823993|    0.011998|
|         826|   -6.130019|   -8.779272|    0.823993|    0.011998|
|         827|   -6.133187|   -8.783264|    0.823992|    0.011998|
|         828|   -6.135633|   -8.786774|    0.823992|    0.011998|
|         829|   -6.137273|   -8.789768|    0.823992|    0.011998|
|         830|   -6.138140|   -8.792226|    0.823992|    0.011998|
|         831|   -6.138360|   -8.794125|    0.823992|    0.011998|
|         832|   -6.138127|   -8.795466|    0.823992|    0.011998|
|         833|   -6.137687|   -8.796255|    0.823992|    0.011998|
|         834|   -6.137302|   -8.796505|    0.823991|    0.011997|
|         835|   -6.137206|   -8.796237|    0.823991|    0.011997|
|         836|   -6.137567|   -8.795478|    0.823991|    0.011997|
|         837|   -6.138466|   -8.794263|    0.823991|    0.011997|
|         838|   -6.139893|   -8.792630|    0.823991|    0.011997|
|         839|   -6.141765|   -8.790624|    0.823991|    0.011997|
|         840|   -6.143948|   -8.788295|    0.823991|    0.011997|
|         841|   -6.146289|   -8.785697|    0.823991|    0.011996|
|         842|   -6.148652|   -8.782884|    0.823991|    0.011996|
|         843|   -6.150942|   -8.779912|    0.823991|    0.011996|
|         844|   -6.153132|   -8.776840|    0.823991|    0.011996|
|         845|   -6.155263|   -8.773725|    0.823991|    0.011996|
|         846|   -6.157425|   -8.770621|    0.823991|    0.011996|
|         847|   -6.159733|   -8.767581|    0.823991|    0.011995|
|         848|   -6.162289|   -8.764656|    0.823991|    0.011995|
|         849|   -6.165163|   -8.761893|    0.823991|    0.011995|
|         850|   -6.168375|   -8.759335|    0.823991|    0.011995|
|         851|   -6.171896|   -8.757014|    0.823991|    0.011995|
|         852|   -6.175658|   -8.754981|    0.823992|    0.011995|
|         853|   -6.179570|   -8.753271|    0.823992|    0.011995|
|         854|   -6.183532|   -8.751918|    0.823992|    0.011995|
|         855|   -6.187457|   -8.750955|    0.823992|    0.011995|
|         856|   -6.191274|   -8.750412|    0.823992|    0.011994|
|         857|   -6.194933|   -8.750318|    0.823992|    0.011994|
|         858|   -6.198404|   -8.750700|    0.823993|    0.011994|
|         859|   -6.201671|   -8.751582|    0.823993|    0.011994|
|         860|   -6.204724|   -8.752986|    0.823993|    0.011994|
|         861|   -6.207553|   -8.754930|    0.823993|    0.011994|
|         862|   -6.210143|   -8.757428|    0.823994|    0.011994|
|         863|   -6.212478|   -8.760489|    0.823994|    0.011994|
|         864|   -6.214535|   -8.764114|    0.823994|    0.011994|
|         865|   -6.216291|   -8.768295|    0.823994|    0.011994|
|         866|   -6.217727|   -8.773017|    0.823995|    0.011994|
|         867|   -6.218829|   -8.778252|    0.823995|    0.011994|
|         868|   -6.219588|   -8.783957|    0.823995|    0.011994|
|         869|   -6.220006|   -8.790074|    0.823996|    0.011994|
|         870|   -6.220090|   -8.796527|    0.823996|    0.011994|
|         871|   -6.219854|   -8.803225|    0.823996|    0.011994|
|         872|   -6.219320|   -8.810052|    0.823997|    0.011994|
|         873|   -6.218513|   -8.816878|    0.823997|    0.011994|
|         874|   -6.217461|   -8.823540|    0.823997|    0.011994|
|         875|   -6.216196|   -8.829872|    0.823997|    0.011994|
|         876|   -6.214752|   -8.835712|    0.823998|    0.011994|
|         877|   -6.213165|   -8.840896|    0.823998|    0.011994|
|         878|   -6.211471|   -8.845271|    0.823998|    0.011994|
|         879|   -6.209708|   -8.848702|    0.823999|    0.011994|
|         880|   -6.207914|   -8.851086|    0.823999|    0.011994|
|         881|   -6.206127|   -8.852358|    0.823999|    0.011994|
|         882|   -6.204381|   -8.852497|    0.823999|    0.011994|
|         883|   -6.202713|   -8.851540|    0.823999|    0.011994|
|         884|   -6.201156|   -8.849570|    0.824000|    0.011994|
|         885|   -6.199741|   -8.846706|    0.824000|    0.011994|
|         886|   -6.198496|   -8.843097|    0.824000|    0.011994|
|         887|   -6.197448|   -8.838908|    0.824000|    0.011994|
|         888|   -6.196621|   -8.834314|    0.824000|    0.011994|
|         889|   -6.196035|   -8.829487|    0.824000|    0.011995|
|         890|   -6.195708|   -8.824591|    0.824000|    0.011995|
|         891|   -6.195657|   -8.819779|    0.824000|    0.011995|
|         892|   -6.195892|   -8.815181|    0.824000|    0.011995|
|         893|   -6.196424|   -8.810912|    0.824000|    0.011995|
|         894|   -6.197259|   -8.807064|    0.824000|    0.011995|
|         895|   -6.198401|   -8.803710|    0.824000|    0.011995|
|         896|   -6.199850|   -8.800904|    0.824000|    0.011995|
|         897|   -6.201607|   -8.798683|    0.824000|    0.011995|
|         898|   -6.203665|   -8.797069|    0.824000|    0.011995|
|         899|   -6.206019|   -8.796067|    0.824000|    0.011996|
|         900|   -6.208658|   -8.795673|    0.824000|    0.011996|
|         901|   -6.211570|   -8.795869|    0.824000|    0.011996|
|         902|   -6.214741|   -8.796631|    0.824000|    0.011996|
|         903|   -6.218154|   -8.797924|    0.824000|    0.011996|
|         904|   -6.221789|   -8.799709|    0.824000|    0.011996|
|         905|   -6.225625|   -8.801939|    0.824000|    0.011996|
|         906|   -6.229637|   -8.804567|    0.824000|    0.011996|
|         907|   -6.233798|   -8.807542|    0.823999|    0.011996|
|         908|   -6.238080|   -8.810816|    0.823999|    0.011996|
|         909|   -6.242453|   -8.814339|    0.823999|    0.011996|
|         910|   -6.246885|   -8.818061|    0.823999|    0.011997|
|         911|   -6.251340|   -8.821933|    0.823999|    0.011997|
|         912|   -6.255784|   -8.825913|    0.823999|    0.011997|
|         913|   -6.260181|   -8.829960|    0.823998|    0.011997|
|         914|   -6.264493|   -8.834042|    0.823998|    0.011997|
|         915|   -6.268684|   -8.838131|    0.823998|    0.011997|
|         916|   -6.272718|   -8.842206|    0.823998|    0.011997|
|         917|   -6.276557|   -8.846255|    0.823998|    0.011997|
|         918|   -6.280170|   -8.850270|    0.823998|    0.011997|
|         919|   -6.283522|   -8.854248|    0.823997|    0.011997|
[...]
|        5298|   -6.045952|   -7.934715|    0.824238|    0.012000|
|        5299|   -6.052640|   -7.938730|    0.824238|    0.012000|
|        5300|   -6.058905|   -7.942799|    0.824238|    0.012000|
|        5301|   -6.064714|   -7.946933|    0.824238|    0.012000|
|        5302|   -6.070044|   -7.951141|    0.824238|    0.012000|
|        5303|   -6.074887|   -7.955430|    0.824238|    0.012000|
|        5304|   -6.079245|   -7.959807|    0.824238|    0.012000|
|        5305|   -6.083134|   -7.964274|    0.824239|    0.012000|
|        5306|   -6.086581|   -7.968833|    0.824239|    0.012000|
|        5307|   -6.089623|   -7.973486|    0.824239|    0.012000|
|        5308|   -6.092304|   -7.978233|    0.824239|    0.012000|
|        5309|   -6.094678|   -7.983075|    0.824239|    0.012000|
|        5310|   -6.096797|   -7.988010|    0.824239|    0.012000|
|        5311|   -6.098722|   -7.993038|    0.824239|    0.012000|
|        5312|   -6.100514|   -7.998158|    0.824239|    0.012000|
|        5313|   -6.102231|   -8.003373|    0.824239|    0.012000|
|        5314|   -6.103928|   -8.008686|    0.824239|    0.012000|
|        5315|   -6.105657|   -8.014101|    0.824239|    0.012000|
|        5316|   -6.107466|   -8.019624|    0.824239|    0.012000|
|        5317|   -6.109398|   -8.025259|    0.824240|    0.012000|
|        5318|   -6.111488|   -8.031013|    0.824240|    0.012000|
|        5319|   -6.113768|   -8.036893|    0.824240|    0.012000|
|        5320|   -6.116260|   -8.042903|    0.824240|    0.012000|
|        5321|   -6.118981|   -8.049049|    0.824240|    0.012000|
|        5322|   -6.121942|   -8.055335|    0.824240|    0.012000|
|        5323|   -6.125145|   -8.061764|    0.824240|    0.012000|
|        5324|   -6.128587|   -8.068336|    0.824240|    0.012000|
|        5325|   -6.132258|   -8.075051|    0.824241|    0.012000|
|        5326|   -6.136142|   -8.081905|    0.824241|    0.012000|
|        5327|   -6.140217|   -8.088895|    0.824241|    0.012000|
|        5328|   -6.144455|   -8.096015|    0.824241|    0.012000|
|        5329|   -6.148824|   -8.103257|    0.824241|    0.012000|
|        5330|   -6.153286|   -8.110610|    0.824241|    0.012000|
|        5331|   -6.157801|   -8.118064|    0.824241|    0.012001|
|        5332|   -6.162326|   -8.125608|    0.824242|    0.012001|
|        5333|   -6.166816|   -8.133231|    0.824242|    0.012001|
|        5334|   -6.171227|   -8.140919|    0.824242|    0.012001|
|        5335|   -6.175516|   -8.148659|    0.824242|    0.012001|
|        5336|   -6.179641|   -8.156432|    0.824242|    0.012001|
|        5337|   -6.183567|   -8.164224|    0.824242|    0.012001|
|        5338|   -6.187262|   -8.172025|    0.824242|    0.012001|
|        5339|   -6.190702|   -8.179823|    0.824242|    0.012001|
|        5340|   -6.193869|   -8.187610|    0.824243|    0.012001|
|        5341|   -6.196755|   -8.195379|    0.824243|    0.012001|
|        5342|   -6.199360|   -8.203122|    0.824243|    0.012001|
|        5343|   -6.201693|   -8.210836|    0.824243|    0.012001|
|        5344|   -6.203771|   -8.218516|    0.824243|    0.012002|
|        5345|   -6.205619|   -8.226158|    0.824243|    0.012002|
|        5346|   -6.207268|   -8.233761|    0.824243|    0.012002|
|        5347|   -6.208754|   -8.241324|    0.824243|    0.012002|
|        5348|   -6.210118|   -8.248849|    0.824243|    0.012002|
|        5349|   -6.211404|   -8.256338|    0.824243|    0.012002|
|        5350|   -6.212657|   -8.263805|    0.824243|    0.012002|
|        5351|   -6.213922|   -8.271248|    0.824243|    0.012002|
|        5352|   -6.215243|   -8.278668|    0.824243|    0.012002|
|        5353|   -6.216663|   -8.286070|    0.824244|    0.012002|
|        5354|   -6.218221|   -8.293456|    0.824244|    0.012002|
|        5355|   -6.219955|   -8.300829|    0.824244|    0.012002|
|        5356|   -6.221898|   -8.308200|    0.824244|    0.012002|
|        5357|   -6.224077|   -8.315584|    0.824244|    0.012002|
|        5358|   -6.226516|   -8.322984|    0.824244|    0.012002|
|        5359|   -6.229235|   -8.330403|    0.824244|    0.012002|
|        5360|   -6.232248|   -8.337840|    0.824244|    0.012002|
|        5361|   -6.235565|   -8.345297|    0.824244|    0.012002|
|        5362|   -6.239192|   -8.352772|    0.824244|    0.012002|
|        5363|   -6.243127|   -8.360264|    0.824244|    0.012002|
|        5364|   -6.247365|   -8.367770|    0.824244|    0.012002|
|        5365|   -6.251896|   -8.375287|    0.824244|    0.012002|
|        5366|   -6.256704|   -8.382813|    0.824243|    0.012002|
|        5367|   -6.261773|   -8.390341|    0.824243|    0.012002|
|        5368|   -6.267074|   -8.397868|    0.824243|    0.012002|
|        5369|   -6.272579|   -8.405387|    0.824243|    0.012002|
|        5370|   -6.278254|   -8.412895|    0.824243|    0.012002|
|        5371|   -6.284063|   -8.420383|    0.824243|    0.012002|
|        5372|   -6.289963|   -8.427840|    0.824243|    0.012002|
|        5373|   -6.295910|   -8.435256|    0.824243|    0.012002|
|        5374|   -6.301856|   -8.442622|    0.824243|    0.012002|
|        5375|   -6.307755|   -8.449926|    0.824243|    0.012002|
|        5376|   -6.313557|   -8.457161|    0.824243|    0.012002|
|        5377|   -6.319215|   -8.464319|    0.824243|    0.012002|
|        5378|   -6.324685|   -8.471387|    0.824243|    0.012002|
|        5379|   -6.329922|   -8.478362|    0.824243|    0.012002|
|        5380|   -6.334888|   -8.485244|    0.824243|    0.012002|
|        5381|   -6.339549|   -8.492041|    0.824243|    0.012001|
|        5382|   -6.343877|   -8.498750|    0.824243|    0.012001|
|        5383|   -6.347851|   -8.505366|    0.824243|    0.012001|
|        5384|   -6.351456|   -8.511890|    0.824243|    0.012001|
|        5385|   -6.354686|   -8.518321|    0.824243|    0.012001|
|        5386|   -6.357540|   -8.524661|    0.824243|    0.012001|
|        5387|   -6.360026|   -8.530909|    0.824243|    0.012001|
|        5388|   -6.362156|   -8.537068|    0.824243|    0.012001|
|        5389|   -6.363948|   -8.543138|    0.824243|    0.012001|
|        5390|   -6.365424|   -8.549117|    0.824243|    0.012001|
|        5391|   -6.366608|   -8.555005|    0.824243|    0.012001|
|        5392|   -6.367527|   -8.560798|    0.824243|    0.012000|
|        5393|   -6.368208|   -8.566491|    0.824243|    0.012000|
|        5394|   -6.368676|   -8.572077|    0.824243|    0.012000|
|        5395|   -6.368959|   -8.577558|    0.824243|    0.012000|
|        5396|   -6.369079|   -8.582926|    0.824243|    0.012000|
|        5397|   -6.369059|   -8.588164|    0.824243|    0.012000|
|        5398|   -6.368917|   -8.593253|    0.824243|    0.012000|
|        5399|   -6.368672|   -8.598178|    0.824243|    0.012000|
|        5400|   -6.368337|   -8.602923|    0.824243|    0.012000|
|        5401|   -6.367924|   -8.607471|    0.824243|    0.011999|
|        5402|   -6.367442|   -8.611811|    0.824244|    0.011999|
|        5403|   -6.366899|   -8.615931|    0.824244|    0.011999|
|        5404|   -6.366300|   -8.619823|    0.824244|    0.011999|
|        5405|   -6.365651|   -8.623484|    0.824244|    0.011999|
|        5406|   -6.364953|   -8.626912|    0.824244|    0.011999|
|        5407|   -6.364211|   -8.630110|    0.824244|    0.011999|
|        5408|   -6.363425|   -8.633087|    0.824244|    0.011999|
|        5409|   -6.362598|   -8.635853|    0.824244|    0.011999|
|        5410|   -6.361731|   -8.638422|    0.824244|    0.011999|
|        5411|   -6.360826|   -8.640810|    0.824245|    0.011999|
|        5412|   -6.359886|   -8.643036|    0.824245|    0.011998|
|        5413|   -6.358914|   -8.645120|    0.824245|    0.011998|
|        5414|   -6.357913|   -8.647089|    0.824245|    0.011998|
|        5415|   -6.356886|   -8.648970|    0.824245|    0.011998|
|        5416|   -6.355839|   -8.650788|    0.824245|    0.011998|
|        5417|   -6.354777|   -8.652564|    0.824245|    0.011998|
|        5418|   -6.353706|   -8.654317|    0.824245|    0.011998|
|        5419|   -6.352635|   -8.656060|    0.824245|    0.011998|
|        5420|   -6.351569|   -8.657806|    0.824245|    0.011998|
|        5421|   -6.350519|   -8.659563|    0.824246|    0.011998|
|        5422|   -6.349493|   -8.661336|    0.824246|    0.011998|
|        5423|   -6.348502|   -8.663127|    0.824246|    0.011998|
|        5424|   -6.347556|   -8.664934|    0.824246|    0.011998|
|        5425|   -6.346667|   -8.666753|    0.824246|    0.011998|
|        5426|   -6.345849|   -8.668577|    0.824246|    0.011998|
|        5427|   -6.345113|   -8.670395|    0.824246|    0.011998|
|        5428|   -6.344474|   -8.672194|    0.824246|    0.011998|
|        5429|   -6.343946|   -8.673961|    0.824246|    0.011998|
|        5430|   -6.343544|   -8.675683|    0.824246|    0.011998|
|        5431|   -6.343283|   -8.677348|    0.824246|    0.011998|
|        5432|   -6.343178|   -8.678945|    0.824246|    0.011998|
|        5433|   -6.343245|   -8.680465|    0.824246|    0.011998|
|        5434|   -6.343499|   -8.681902|    0.824246|    0.011998|
|        5435|   -6.343955|   -8.683251|    0.824246|    0.011998|
|        5436|   -6.344627|   -8.684512|    0.824246|    0.011998|
|        5437|   -6.345529|   -8.685685|    0.824246|    0.011998|
|        5438|   -6.346674|   -8.686772|    0.824246|    0.011998|
|        5439|   -6.348072|   -8.687780|    0.824246|    0.011998|
|        5440|   -6.349733|   -8.688718|    0.824246|    0.011998|
|        5441|   -6.351667|   -8.689598|    0.824246|    0.011998|
|        5442|   -6.353878|   -8.690430|    0.824246|    0.011998|
|        5443|   -6.356372|   -8.691227|    0.824246|    0.011998|
|        5444|   -6.359150|   -8.692001|    0.824246|    0.011998|
|        5445|   -6.362211|   -8.692763|    0.824246|    0.011998|
|        5446|   -6.365551|   -8.693524|    0.824246|    0.011998|
|        5447|   -6.369163|   -8.694294|    0.824246|    0.011998|
|        5448|   -6.373038|   -8.695081|    0.824246|    0.011998|
|        5449|   -6.377162|   -8.695891|    0.824246|    0.011998|
|        5450|   -6.381519|   -8.696730|    0.824246|    0.011998|
|        5451|   -6.386087|   -8.697601|    0.824246|    0.011998|
|        5452|   -6.390843|   -8.698504|    0.824246|    0.011998|
|        5453|   -6.395759|   -8.699439|    0.824246|    0.011999|
|        5454|   -6.400803|   -8.700404|    0.824246|    0.011999|
|        5455|   -6.405941|   -8.701395|    0.824246|    0.011999|
|        5456|   -6.411134|   -8.702408|    0.824246|    0.011999|
|        5457|   -6.416342|   -8.703437|    0.824246|    0.011999|
|        5458|   -6.421522|   -8.704474|    0.824246|    0.011999|
|        5459|   -6.426627|   -8.705512|    0.824245|    0.011999|
|        5460|   -6.431613|   -8.706545|    0.824245|    0.011999|
|        5461|   -6.436433|   -8.707563|    0.824245|    0.011999|
|        5462|   -6.441042|   -8.708560|    0.824245|    0.011999|
|        5463|   -6.445395|   -8.709527|    0.824245|    0.011999|
|        5464|   -6.449453|   -8.710458|    0.824245|    0.011999|
|        5465|   -6.453177|   -8.711346|    0.824245|    0.012000|
|        5466|   -6.456538|   -8.712186|    0.824245|    0.012000|
|        5467|   -6.459509|   -8.712970|    0.824245|    0.012000|
|        5468|   -6.462070|   -8.713696|    0.824244|    0.012000|
|        5469|   -6.464210|   -8.714359|    0.824244|    0.012000|
|        5470|   -6.465926|   -8.714956|    0.824244|    0.012000|
|        5471|   -6.467219|   -8.715485|    0.824244|    0.012000|
|        5472|   -6.468101|   -8.715943|    0.824244|    0.012000|
|        5473|   -6.468588|   -8.716329|    0.824244|    0.012000|
|        5474|   -6.468705|   -8.716644|    0.824244|    0.012000|
|        5475|   -6.468481|   -8.716887|    0.824243|    0.012000|
|        5476|   -6.467947|   -8.717058|    0.824243|    0.012000|
|        5477|   -6.467141|   -8.717158|    0.824243|    0.012000|
|        5478|   -6.466101|   -8.717189|    0.824243|    0.012000|
|        5479|   -6.464868|   -8.717152|    0.824243|    0.012000|
|        5480|   -6.463481|   -8.717049|    0.824243|    0.012000|
|        5481|   -6.461980|   -8.716883|    0.824242|    0.012000|
|        5482|   -6.460404|   -8.716657|    0.824242|    0.012000|
|        5483|   -6.458790|   -8.716374|    0.824242|    0.012001|
|        5484|   -6.457174|   -8.716039|    0.824242|    0.012001|
|        5485|   -6.455587|   -8.715656|    0.824242|    0.012001|
|        5486|   -6.454061|   -8.715231|    0.824242|    0.012001|
|        5487|   -6.452622|   -8.714765|    0.824241|    0.012001|
|        5488|   -6.451294|   -8.714265|    0.824241|    0.012001|
|        5489|   -6.450100|   -8.713739|    0.824241|    0.012001|
|        5490|   -6.449058|   -8.713195|    0.824241|    0.012001|
|        5491|   -6.448184|   -8.712642|    0.824241|    0.012001|
|        5492|   -6.447493|   -8.712087|    0.824241|    0.012001|
|        5493|   -6.446996|   -8.711539|    0.824240|    0.012001|
|        5494|   -6.446702|   -8.711007|    0.824240|    0.012001|
|        5495|   -6.446617|   -8.710500|    0.824240|    0.012001|
|        5496|   -6.446749|   -8.710027|    0.824240|    0.012001|
|        5497|   -6.447099|   -8.709598|    0.824240|    0.012000|
|        5498|   -6.447670|   -8.709222|    0.824240|    0.012000|
|        5499|   -6.448462|   -8.708908|    0.824240|    0.011986|
+-----------------------------------------------------------------------+
|Fixed CL Mode (Finite Difference)       |Value                         |
+-----------------------------------------------------------------------+
|Delta CL / Delta AoA                    |0.240134                      |
|Delta CD / Delta CL                     |0.0190477                     |
|Delta CMz / Delta CL                    |0.00401479                    |
+-----------------------------------------------------------------------+
Writing Flow Meta-Data file: flow.meta

----------------------------- Solver Exit -------------------------------

Maximum number of iterations reached (ITER = 5500) before convergence.
+-----------------------------------------------------------------------+
|      Convergence Field     |     Value    |   Criterion  |  Converged |
+-----------------------------------------------------------------------+
|                    rms[Rho]|      -6.44846|         < -12|          No|
+-----------------------------------------------------------------------+
-------------------------------------------------------------------------

--------------------------- Finalizing Solver ---------------------------
Deleted CNumerics container.
Deleted CIntegration container.
Deleted CSolver container.
Deleted CIteration container.
Deleted CInterface container.
Deleted CGeometry container.
Deleted CFreeFormDefBox class.
Deleted CSurfaceMovement class.
Deleted CVolumetricMovement class.
Deleted CConfig container.
Deleted nInst container.
Deleted COutput class.
-------------------------------------------------------------------------

------------------------- Exit Success (SU2_CFD) ------------------------


-------------------------------------------------------------------------
|    ___ _   _ ___                                                      |
|   / __| | | |_  )   Release 8.0.0 "Harrier"                           |
|   \__ \ |_| |/ /                                                      |
|   |___/\___//___|   Suite (Solution Exporting Code)                   |
|                                                                       |
-------------------------------------------------------------------------
| SU2 Project Website: https://su2code.github.io                        |
|                                                                       |
| The SU2 Project is maintained by the SU2 Foundation                   |
| (http://su2foundation.org)                                            |
-------------------------------------------------------------------------
| Copyright 2012-2023, SU2 Contributors                                 |
|                                                                       |
| SU2 is free software; you can redistribute it and/or                  |
| modify it under the terms of the GNU Lesser General Public            |
| License as published by the Free Software Foundation; either          |
| version 2.1 of the License, or (at your option) any later version.    |
|                                                                       |
| SU2 is distributed in the hope that it will be useful,                |
| but WITHOUT ANY WARRANTY; without even the implied warranty of        |
| MERCHANTABILITY or FITNESS FOR A PARTICULAR PURPOSE. See the GNU      |
| Lesser General Public License for more details.                       |
|                                                                       |
| You should have received a copy of the GNU Lesser General Public      |
| License along with SU2. If not, see <http://www.gnu.org/licenses/>.   |
-------------------------------------------------------------------------

----------------- Physical Case Definition ( Zone 0 ) -------------------
Input mesh file name: mesh_RAE2822_turb_deform.su2

-------------------- Output Information ( Zone 0 ) ----------------------
The tabular file format is CSV (.csv).
Flow variables file name: flow.

------------- Config File Boundary Information ( Zone 0 ) ---------------
+-----------------------------------------------------------------------+
|                        Marker Type|                        Marker Name|
+-----------------------------------------------------------------------+
|                          Far-field|                           FARFIELD|
+-----------------------------------------------------------------------+
|                     Heat flux wall|                            AIRFOIL|
+-----------------------------------------------------------------------+
Two dimensional problem.
13937 grid points before partitioning.
22842 volume elements before partitioning.
2 surface markers.
192 boundary elements in index 0 (Marker = AIRFOIL).
40 boundary elements in index 1 (Marker = FARFIELD).
Executing the partitioning functions.
Building the graph adjacency structure.
Calling ParMETIS... graph partitioning complete (831 edge cuts).
Distributing ParMETIS coloring.
Rebalancing vertices.
Rebalancing volume element connectivity.
Rebalancing markers and surface elements.
14875 vertices including ghost points. 
23674 interior elements including halo cells. 
18780 triangles.
4894 quadrilaterals.
Establishing MPI communication patterns.
Identify vertices.
Storing a mapping from global to local point index.

------------------------- Solution Postprocessing -----------------------
Reading and storing the solution from restart_flow.
Volume output fields: COORDINATES, SOLUTION
  Info: Ignoring the following screen output fields:
  RMS_DENSITY, RMS_NU_TILDE, LIFT, DRAG
Screen output fields: INNER_ITER
  Info: Ignoring the following history output groups:
  RMS_RES, AERO_COEFF
History output group(s): ITER
Warning: No (valid) fields chosen for convergence monitoring. Convergence monitoring inactive.
Warning: No (valid) fields chosen for time convergence monitoring. Time convergence monitoring inactive.
|Paraview                           |flow.vtu                           |
|Paraview surface                   |surface_flow.vtu                   |
|CSV file                           |surface_flow.csv                   |

------------------------- Finalize Solver -------------------------
Deleted CGeometry container.
Deleted CSolver class.
Deleted CConfig container.
Deleted COutput class.

Completed in 0.015355 seconds on 6 cores.

------------------------- Exit Success (SU2_SOL) ------------------------

