
-------------------------------------------------------------------------
|    ___ _   _ ___                                                      |
|   / __| | | |_  )   Release 8.0.0 "Harrier"                           |
|   \__ \ |_| |/ /                                                      |
|   |___/\___//___|   Suite (Computational Fluid Dynamics Code)         |
|                                                                       |
-------------------------------------------------------------------------
| SU2 Project Website: https://su2code.github.io                        |
|                                                                       |
| The SU2 Project is maintained by the SU2 Foundation                   |
| (http://su2foundation.org)                                            |
-------------------------------------------------------------------------
| Copyright 2012-2023, SU2 Contributors                                 |
|                                                                       |
| SU2 is free software; you can redistribute it and/or                  |
| modify it under the terms of the GNU Lesser General Public            |
| License as published by the Free Software Foundation; either          |
| version 2.1 of the License, or (at your option) any later version.    |
|                                                                       |
| SU2 is distributed in the hope that it will be useful,                |
| but WITHOUT ANY WARRANTY; without even the implied warranty of        |
| MERCHANTABILITY or FITNESS FOR A PARTICULAR PURPOSE. See the GNU      |
| Lesser General Public License for more details.                       |
|                                                                       |
| You should have received a copy of the GNU Lesser General Public      |
| License along with SU2. If not, see <http://www.gnu.org/licenses/>.   |
-------------------------------------------------------------------------

Parsing config file for zone 0

----------------- Physical Case Definition ( Zone 0 ) -------------------
Compressible RANS equations.
Turbulence model: Spalart-Allmaras-noft2
Hybrid RANS/LES: No Hybrid RANS/LES
Mach number: 0.734.
Angle of attack (AoA): 2.31 deg, and angle of sideslip (AoS): 0 deg.
Reynolds number: 6.5e+06. Reference length 1.
Fixed CL mode, target value: 0.824.
Reading and writing binary SU2 native restart files.
Read flow solution from: solution_flow.dat.
Dimensional simulation.
The reference area is 1 m^2.
The semi-span will be computed using the max y(3D) value.
The reference length is 1 m.
Reference origin for moment evaluation is (0.25, 0, 0).
Surface(s) where the force coefficients are evaluated: AIRFOIL.

Surface(s) plotted in the output file: AIRFOIL.
Surface(s) affected by the design variables: AIRFOIL.
Input mesh file name: mesh_RAE2822_turb_deform.su2

--------------- Space Numerical Integration ( Zone 0 ) ------------------
Jameson-Schmidt-Turkel scheme (2nd order in space) for the flow inviscid terms.
JST viscous coefficients (2nd & 4th): 0.5, 0.02.
The method includes a grid stretching correction (p = 0.3).
Scalar upwind solver for the turbulence model.
First order integration in space.
Average of gradients with correction (viscous flow terms).
Average of gradients with correction (viscous turbulence terms).
Gradient for viscous and source terms: inverse-distance weighted Least-Squares.

--------------- Time Numerical Integration  ( Zone 0 ) ------------------
Local time stepping (steady state simulation).
Euler implicit method for the flow equations.
FGMRES is used for solving the linear system.
Using a ILU(0) preconditioning.
Convergence criteria of the linear solver: 1e-06.
Max number of linear iterations: 10.
No CFL adaptation.
Courant-Friedrichs-Lewy number:       10
Euler implicit time integration for the turbulence model.

------------------ Convergence Criteria  ( Zone 0 ) ---------------------
Maximum number of solver subiterations: 5500.
Begin convergence monitoring at iteration 10.
Residual minimum value: 1e-12.
Cauchy series min. value: 1e-06.
Number of Cauchy elements: 100.
Begin windowed time average at iteration 0.

-------------------- Output Information ( Zone 0 ) ----------------------
File writing frequency: 
+------------------------------------+
|                     File| Frequency|
+------------------------------------+
|                  RESTART|     10000|
|                 PARAVIEW|     10000|
|         SURFACE_PARAVIEW|     10000|
|              SURFACE_CSV|     10000|
+------------------------------------+
Writing the convergence history file every 1 inner iterations.
Writing the screen convergence history every 1 inner iterations.
The tabular file format is CSV (.csv).
Convergence history file name: history_direct.
Forces breakdown file name: forces_breakdown.dat.
Surface file name: surface_flow.
Volume file name: flow.
Restart file name: restart_flow.dat.

------------- Config File Boundary Information ( Zone 0 ) ---------------
+-----------------------------------------------------------------------+
|                        Marker Type|                        Marker Name|
+-----------------------------------------------------------------------+
|                          Far-field|                           FARFIELD|
+-----------------------------------------------------------------------+
|                     Heat flux wall|                            AIRFOIL|
+-----------------------------------------------------------------------+

-------------------- Output Preprocessing ( Zone 0 ) --------------------

WARNING: SURFACE_PRESSURE_DROP can only be computed for at least 2 surfaces (outlet, inlet, ...)

Screen output fields: INNER_ITER, RMS_DENSITY, RMS_NU_TILDE, LIFT, DRAG
History output group(s): ITER, RMS_RES, AERO_COEFF
Convergence field(s): RMS_DENSITY
Warning: No (valid) fields chosen for time convergence monitoring. Time convergence monitoring inactive.
Volume output fields: COORDINATES, SOLUTION, PRIMITIVE

------------------- Geometry Preprocessing ( Zone 0 ) -------------------
Two dimensional problem.
13937 grid points before partitioning.
22842 volume elements before partitioning.
2 surface markers.
192 boundary elements in index 0 (Marker = AIRFOIL).
40 boundary elements in index 1 (Marker = FARFIELD).
Executing the partitioning functions.
Building the graph adjacency structure.
Calling ParMETIS... graph partitioning complete (831 edge cuts).
Distributing ParMETIS coloring.
Rebalancing vertices.
Rebalancing volume element connectivity.
Rebalancing markers and surface elements.
14875 vertices including ghost points. 
23674 interior elements including halo cells. 
18780 triangles.
4894 quadrilaterals.
Establishing MPI communication patterns.
Setting point connectivity.
Renumbering points (Reverse Cuthill McKee Ordering).
Recomputing point connectivity.
Setting element connectivity.
Checking the numerical grid orientation.
All volume elements are correctly orientend.
All surface elements are correctly orientend.
Identifying edges and vertices.
Setting the control volume structure.
Area of the computational grid: 32209.9.
Searching for the closest normal neighbors to the surfaces.
Storing a mapping from global to local point index.
Compute the surface curvature.
Max K: 158.062. Mean K: 7.12411. Standard deviation K: 21.0144.
Checking for periodicity.
Computing mesh quality statistics for the dual control volumes.
+--------------------------------------------------------------+
|           Mesh Quality Metric|        Minimum|        Maximum|
+--------------------------------------------------------------+
|    Orthogonality Angle (deg.)|         75.288|        89.9981|
|     CV Face Area Aspect Ratio|        1.00144|        3358.39|
|           CV Sub-Volume Ratio|         1.0006|        1211.64|
+--------------------------------------------------------------+
Finding max control volume width.
Communicating number of neighbors.
Wetted area = 2.0242 m.
Area projection in the x-plane = 0.123075 m, y-plane = 0.995873 m.
Max. coordinate in the x-direction = 1 m, y-direction = 0.0640659 m.
Min. coordinate in the x-direction = 0 m, y-direction = -0.0579856 m.
Computing wall distances.

-------------------- Solver Preprocessing ( Zone 0 ) --------------------
WARNING: AoA in the solution file (2.92112 deg.) +
         AoA offset in mesh file (0 deg.) = 2.92112 deg.
WARNING: SU2 will use the dCD/dCL provided in the direct solution file: 0.0892816.
WARNING: SU2 will use the dCMz/dCL provided in the direct solution file: -0.00762816.
Viscous flow: Computing pressure using the ideal gas law
based on the free-stream temperature and a density computed
from the Reynolds number.
Force coefficients computed using free-stream values.

-- Models:
+------------------------------------------------------------------------------+
|          Viscosity Model|        Conductivity Model|              Fluid Model|
+------------------------------------------------------------------------------+
|               SUTHERLAND|          CONSTANT_PRANDTL|             STANDARD_AIR|
+------------------------------------------------------------------------------+
-- Fluid properties:
+------------------------------------------------------------------------------+
|                  Name|    Dim. value|    Ref. value|      Unit|Non-dim. value|
+------------------------------------------------------------------------------+
|        Ref. Viscosity|     1.716e-05|             1|   N.s/m^2|     1.716e-05|
|      Sutherland Temp.|        273.15|             1|         K|        273.15|
|     Sutherland Const.|         110.4|             1|         K|         110.4|
+------------------------------------------------------------------------------+
|        Prandtl (Lam.)|             -|             -|         -|          0.71|
|       Prandtl (Turb.)|             -|             -|         -|           0.9|
+------------------------------------------------------------------------------+
|          Gas Constant|       287.058|             1|  N.m/kg.K|       287.058|
|      Spec. Heat Ratio|             -|             -|         -|           1.4|
+------------------------------------------------------------------------------+
-- Initial and free-stream conditions:
+------------------------------------------------------------------------------+
|                  Name|    Dim. value|    Ref. value|      Unit|Non-dim. value|
+------------------------------------------------------------------------------+
|       Static Pressure|         38515|             1|        Pa|         38515|
|               Density|      0.465631|             1|    kg/m^3|      0.465631|
|           Temperature|        288.15|             1|         K|        288.15|
|          Total Energy|        237984|             1|   m^2/s^2|        237984|
|            Velocity-X|       249.453|             1|       m/s|       249.453|
|            Velocity-Y|       12.7289|             1|       m/s|       12.7289|
|    Velocity Magnitude|       249.778|             1|       m/s|       249.778|
+------------------------------------------------------------------------------+
|             Viscosity|    1.7893e-05|             1|   N.s/m^2|    1.7893e-05|
|          Conductivity|             -|             1|   W/m^2.K|             -|
|     Turb. Kin. Energy|       233.959|             1|   m^2/s^2|       233.959|
|     Spec. Dissipation|        608834|             1|       1/s|        608834|
+------------------------------------------------------------------------------+
|           Mach Number|             -|             -|         -|         0.734|
|       Reynolds Number|             -|             -|         -|       6.5e+06|
+------------------------------------------------------------------------------+
Initialize Jacobian structure (Navier-Stokes). MG level: 0.
Initialize Jacobian structure (SA model).

------------------- Numerics Preprocessing ( Zone 0 ) -------------------

----------------- Integration Preprocessing ( Zone 0 ) ------------------

------------------- Iteration Preprocessing ( Zone 0 ) ------------------
Euler/Navier-Stokes/RANS fluid iteration.

------------------------------ Begin Solver -----------------------------

Simulation Run using the Single-zone Driver
WARNING: SU2 was not compiled for an AVX-capable architecture. Performance could be better,
         see https://su2code.github.io/docs_v7/Build-SU2-Linux-MacOS/#compiler-optimizations
+----------------------------------------------------------------+
|  Inner_Iter|    rms[Rho]|     rms[nu]|          CL|          CD|
+----------------------------------------------------------------+
|           0|   -4.181582|   -5.356116|    0.824130|    0.020545|
|           1|   -4.238189|   -5.436886|    0.824121|    0.020485|
|           2|   -4.291743|   -5.520275|    0.824029|    0.020456|
|           3|   -4.319860|   -5.607606|    0.823912|    0.020449|
|           4|   -4.330021|   -5.700715|    0.823809|    0.020454|
|           5|   -4.330287|   -5.799965|    0.823734|    0.020461|
|           6|   -4.325417|   -5.894510|    0.823683|    0.020466|
|           7|   -4.318988|   -5.955529|    0.823647|    0.020465|
|           8|   -4.312764|   -5.963084|    0.823620|    0.020461|
|           9|   -4.306745|   -5.936223|    0.823600|    0.020454|
|          10|   -4.300098|   -5.902328|    0.823591|    0.020447|
|          11|   -4.291901|   -5.872632|    0.823593|    0.020440|
|          12|   -4.281460|   -5.847573|    0.823608|    0.020435|
|          13|   -4.268415|   -5.823880|    0.823635|    0.020432|
|          14|   -4.252797|   -5.799945|    0.823673|    0.020433|
|          15|   -4.235057|   -5.775030|    0.823718|    0.020436|
|          16|   -4.215994|   -5.749145|    0.823768|    0.020442|
|          17|   -4.196568|   -5.722418|    0.823818|    0.020450|
|          18|   -4.177681|   -5.695084|    0.823867|    0.020461|
|          19|   -4.159998|   -5.667397|    0.823912|    0.020474|
|          20|   -4.143892|   -5.639784|    0.823949|    0.020487|
|          21|   -4.129472|   -5.612876|    0.823976|    0.020501|
|          22|   -4.116669|   -5.587397|    0.823991|    0.020514|
|          23|   -4.105344|   -5.564114|    0.823992|    0.020525|
|          24|   -4.095364|   -5.543648|    0.823978|    0.020535|
|          25|   -4.086642|   -5.526478|    0.823948|    0.020541|
|          26|   -4.079139|   -5.512909|    0.823903|    0.020544|
|          27|   -4.072844|   -5.503103|    0.823844|    0.020543|
|          28|   -4.067737|   -5.497106|    0.823771|    0.020539|
|          29|   -4.063685|   -5.494846|    0.823687|    0.020530|
|          30|   -4.060630|   -5.496144|    0.823595|    0.020518|
|          31|   -4.058487|   -5.500813|    0.823497|    0.020503|
|          32|   -4.057074|   -5.508456|    0.823397|    0.020486|
|          33|   -4.056216|   -5.518584|    0.823299|    0.020467|
|          34|   -4.055759|   -5.530632|    0.823204|    0.020447|
|          35|   -4.055588|   -5.543917|    0.823116|    0.020427|
|          36|   -4.055624|   -5.557589|    0.823037|    0.020408|
|          37|   -4.055825|   -5.570631|    0.822968|    0.020389|
|          38|   -4.056185|   -5.581968|    0.822911|    0.020371|
|          39|   -4.056732|   -5.590593|    0.822865|    0.020356|
|          40|   -4.057514|   -5.595723|    0.822831|    0.020342|
|          41|   -4.058597|   -5.596953|    0.822807|    0.020330|
|          42|   -4.060048|   -5.594335|    0.822792|    0.020319|
|          43|   -4.061931|   -5.588311|    0.822786|    0.020311|
|          44|   -4.064282|   -5.579554|    0.822785|    0.020303|
|          45|   -4.067110|   -5.568800|    0.822788|    0.020297|
|          46|   -4.070434|   -5.556710|    0.822794|    0.020291|
|          47|   -4.074239|   -5.543806|    0.822800|    0.020285|
|          48|   -4.078493|   -5.530477|    0.822804|    0.020279|
|          49|   -4.083162|   -5.517001|    0.822806|    0.020273|
|          50|   -4.088213|   -5.503596|    0.822805|    0.020266|
|          51|   -4.093623|   -5.490461|    0.822799|    0.020258|
|          52|   -4.099394|   -5.477793|    0.822788|    0.020248|
|          53|   -4.105450|   -5.465790|    0.822773|    0.020238|
|          54|   -4.111773|   -5.454641|    0.822754|    0.020227|
|          55|   -4.118340|   -5.444506|    0.822730|    0.020214|
|          56|   -4.125138|   -5.435502|    0.822703|    0.020201|
|          57|   -4.132165|   -5.427688|    0.822674|    0.020186|
|          58|   -4.139418|   -5.421077|    0.822643|    0.020172|
|          59|   -4.146899|   -5.415591|    0.822611|    0.020156|
|          60|   -4.154601|   -5.411111|    0.822578|    0.020141|
|          61|   -4.162505|   -5.407475|    0.822546|    0.020125|
|          62|   -4.170579|   -5.404489|    0.822516|    0.020110|
|          63|   -4.178784|   -5.401953|    0.822486|    0.020095|
|          64|   -4.187080|   -5.399676|    0.822459|    0.020080|
|          65|   -4.195420|   -5.397489|    0.822434|    0.020066|
|          66|   -4.203736|   -5.395262|    0.822411|    0.020052|
|          67|   -4.212078|   -5.392905|    0.822389|    0.020039|
|          68|   -4.220449|   -5.390370|    0.822370|    0.020027|
|          69|   -4.228863|   -5.387645|    0.822351|    0.020015|
|          70|   -4.237340|   -5.384748|    0.822334|    0.020003|
|          71|   -4.245894|   -5.381714|    0.822318|    0.019992|
|          72|   -4.254531|   -5.378589|    0.822302|    0.019981|
|          73|   -4.263238|   -5.375419|    0.822286|    0.019970|
|          74|   -4.271986|   -5.372250|    0.822270|    0.019960|
|          75|   -4.280728|   -5.369118|    0.822253|    0.019949|
|          76|   -4.289413|   -5.366055|    0.822235|    0.019939|
|          77|   -4.297985|   -5.363081|    0.822216|    0.019929|
|          78|   -4.306406|   -5.360214|    0.822195|    0.019919|
|          79|   -4.314676|   -5.357461|    0.822174|    0.019909|
|          80|   -4.322714|   -5.354826|    0.822151|    0.019899|
|          81|   -4.330506|   -5.352313|    0.822127|    0.019889|
|          82|   -4.338029|   -5.349921|    0.822101|    0.019879|
|          83|   -4.345276|   -5.347647|    0.822075|    0.019869|
|          84|   -4.352257|   -5.345485|    0.822048|    0.019858|
|          85|   -4.358985|   -5.343427|    0.822021|    0.019848|
|          86|   -4.365460|   -5.341466|    0.821993|    0.019838|
|          87|   -4.371651|   -5.339593|    0.821966|    0.019828|
|          88|   -4.377508|   -5.337803|    0.821938|    0.019819|
|          89|   -4.382967|   -5.336089|    0.821911|    0.019809|
|          90|   -4.387962|   -5.334449|    0.821884|    0.019800|
|          91|   -4.392438|   -5.332881|    0.821859|    0.019791|
|          92|   -4.396359|   -5.331382|    0.821834|    0.019782|
|          93|   -4.399705|   -5.329955|    0.821810|    0.019773|
|          94|   -4.402479|   -5.328598|    0.821787|    0.019765|
|          95|   -4.404698|   -5.327315|    0.821766|    0.019758|
|          96|   -4.406389|   -5.326107|    0.821746|    0.019751|
|          97|   -4.407588|   -5.324976|    0.821727|    0.019744|
|          98|   -4.408323|   -5.323923|    0.821709|    0.019738|
|          99|   -4.408580|   -5.322948|    0.821692|    0.019733|
|         100|   -4.408442|   -5.322051|    0.821676|    0.019728|
|         101|   -4.407933|   -5.321231|    0.821657|    0.019890|
+-----------------------------------------------------------------------+
|Fixed CL Mode                           |Value                         |
+-----------------------------------------------------------------------+
|Current CL                              |0.821657                      |
|Target CL                               |0.824                         |
|Previous AOA                            |2.92112                       |
|Changed AoA by                          |0.0116201                     |
+-----------------------------------------------------------------------+
+----------------------------------------------------------------+
|  Inner_Iter|    rms[Rho]|     rms[nu]|          CL|          CD|
+----------------------------------------------------------------+
|         102|   -2.128149|   -5.317264|    0.821642|    0.019886|
|         103|   -2.512686|   -5.318257|    0.821628|    0.019883|
|         104|   -2.757493|   -5.318119|    0.821614|    0.019880|
|         105|   -2.837278|   -5.317819|    0.821600|    0.019878|
|         106|   -2.891609|   -5.317496|    0.821586|    0.019876|
|         107|   -2.961946|   -5.317182|    0.821572|    0.019875|
|         108|   -3.048975|   -5.316879|    0.821557|    0.019874|
|         109|   -3.139917|   -5.316580|    0.821541|    0.019873|
|         110|   -3.217955|   -5.316286|    0.821525|    0.019872|
|         111|   -3.274472|   -5.315997|    0.821508|    0.019872|
|         112|   -3.311210|   -5.315709|    0.821490|    0.019871|
|         113|   -3.332243|   -5.315425|    0.821472|    0.019870|
|         114|   -3.341571|   -5.315146|    0.821452|    0.019870|
|         115|   -3.345129|   -5.314870|    0.821431|    0.019869|
|         116|   -3.349572|   -5.314592|    0.821410|    0.019868|
|         117|   -3.359347|   -5.314304|    0.821388|    0.019867|
|         118|   -3.375480|   -5.314000|    0.821365|    0.019866|
|         119|   -3.396138|   -5.313673|    0.821341|    0.019864|
|         120|   -3.418109|   -5.313320|    0.821318|    0.019862|
|         121|   -3.438652|   -5.312937|    0.821294|    0.019860|
|         122|   -3.456839|   -5.312520|    0.821270|    0.019858|
|         123|   -3.473505|   -5.312070|    0.821246|    0.019855|
|         124|   -3.490083|   -5.311588|    0.821222|    0.019853|
|         125|   -3.507471|   -5.311073|    0.821199|    0.019850|
|         126|   -3.525642|   -5.310531|    0.821177|    0.019847|
|         127|   -3.543872|   -5.309965|    0.821155|    0.019844|
|         128|   -3.561174|   -5.309380|    0.821135|    0.019841|
|         129|   -3.576646|   -5.308783|    0.821115|    0.019839|
|         130|   -3.589667|   -5.308182|    0.821097|    0.019836|
|         131|   -3.600013|   -5.307584|    0.821080|    0.019834|
|         132|   -3.607941|   -5.306996|    0.821064|    0.019831|
|         133|   -3.614177|   -5.306425|    0.821050|    0.019829|
|         134|   -3.619760|   -5.305879|    0.821038|    0.019828|
|         135|   -3.625781|   -5.305363|    0.821027|    0.019826|
|         136|   -3.633141|   -5.304885|    0.821018|    0.019825|
|         137|   -3.642398|   -5.304450|    0.821011|    0.019824|
|         138|   -3.653700|   -5.304064|    0.821005|    0.019824|
|         139|   -3.666791|   -5.303731|    0.821001|    0.019823|
|         140|   -3.681040|   -5.303456|    0.821000|    0.019823|
|         141|   -3.695533|   -5.303245|    0.821000|    0.019823|
|         142|   -3.709240|   -5.303102|    0.821002|    0.019824|
|         143|   -3.721264|   -5.303033|    0.821006|    0.019824|
|         144|   -3.731108|   -5.303042|    0.821013|    0.019825|
|         145|   -3.738835|   -5.303134|    0.821022|    0.019826|
|         146|   -3.745035|   -5.303315|    0.821033|    0.019827|
|         147|   -3.750607|   -5.303589|    0.821047|    0.019828|
|         148|   -3.756487|   -5.303960|    0.821064|    0.019829|
|         149|   -3.763422|   -5.304433|    0.821084|    0.019830|
|         150|   -3.771846|   -5.305012|    0.821108|    0.019832|
|         151|   -3.781857|   -5.305701|    0.821135|    0.019833|
|         152|   -3.793259|   -5.306505|    0.821165|    0.019834|
|         153|   -3.805645|   -5.307426|    0.821200|    0.019836|
|         154|   -3.818508|   -5.308468|    0.821239|    0.019838|
|         155|   -3.831349|   -5.309635|    0.821282|    0.019839|
|         156|   -3.843786|   -5.310933|    0.821329|    0.019841|
|         157|   -3.855609|   -5.312364|    0.821380|    0.019843|
|         158|   -3.866806|   -5.313931|    0.821436|    0.019845|
|         159|   -3.877523|   -5.315641|    0.821496|    0.019846|
|         160|   -3.887998|   -5.317495|    0.821560|    0.019849|
|         161|   -3.898492|   -5.319498|    0.821629|    0.019851|
|         162|   -3.909228|   -5.321655|    0.821700|    0.019853|
|         163|   -3.920361|   -5.323965|    0.821776|    0.019855|
|         164|   -3.931966|   -5.326432|    0.821854|    0.019858|
|         165|   -3.944051|   -5.329059|    0.821935|    0.019860|
|         166|   -3.956579|   -5.331845|    0.822018|    0.019863|
|         167|   -3.969491|   -5.334789|    0.822103|    0.019865|
|         168|   -3.982725|   -5.337890|    0.822189|    0.019868|
|         169|   -3.996226|   -5.341144|    0.822275|    0.019871|
|         170|   -4.009954|   -5.344549|    0.822361|    0.019873|
|         171|   -4.023876|   -5.348101|    0.822446|    0.019876|
|         172|   -4.037958|   -5.351794|    0.822530|    0.019878|
|         173|   -4.052158|   -5.355625|    0.822612|    0.019881|
|         174|   -4.066417|   -5.359587|    0.822691|    0.019883|
|         175|   -4.080653|   -5.363674|    0.822767|    0.019885|
|         176|   -4.094765|   -5.367879|    0.822838|    0.019887|
|         177|   -4.108629|   -5.372196|    0.822906|    0.019888|
|         178|   -4.122106|   -5.376618|    0.822968|    0.019890|
|         179|   -4.135056|   -5.381139|    0.823026|    0.019891|
|         180|   -4.147341|   -5.385752|    0.823078|    0.019891|
|         181|   -4.158836|   -5.390451|    0.823123|    0.019892|
|         182|   -4.169438|   -5.395230|    0.823163|    0.019892|
|         183|   -4.179070|   -5.400087|    0.823196|    0.019892|
|         184|   -4.187686|   -5.405021|    0.823223|    0.019891|
|         185|   -4.195275|   -5.410029|    0.823244|    0.019891|
|         186|   -4.201860|   -5.415106|    0.823258|    0.019889|
|         187|   -4.207500|   -5.420256|    0.823266|    0.019888|
|         188|   -4.212284|   -5.425482|    0.823268|    0.019886|
|         189|   -4.216326|   -5.430786|    0.823264|    0.019884|
|         190|   -4.219761|   -5.436169|    0.823255|    0.019882|
|         191|   -4.222730|   -5.441637|    0.823240|    0.019879|
|         192|   -4.225382|   -5.447199|    0.823220|    0.019877|
|         193|   -4.227856|   -5.452854|    0.823196|    0.019874|
|         194|   -4.230287|   -5.458608|    0.823167|    0.019871|
|         195|   -4.232792|   -5.464463|    0.823135|    0.019867|
|         196|   -4.235475|   -5.470427|    0.823099|    0.019864|
|         197|   -4.238422|   -5.476499|    0.823060|    0.019860|
|         198|   -4.241702|   -5.482682|    0.823019|    0.019856|
|         199|   -4.245366|   -5.488974|    0.822975|    0.019853|
|         200|   -4.249449|   -5.495374|    0.822930|    0.019849|
|         201|   -4.253971|   -5.501876|    0.822881|    0.019922|
+-----------------------------------------------------------------------+
|Fixed CL Mode                           |Value                         |
+-----------------------------------------------------------------------+
|Current CL                              |0.822881                      |
|Target CL                               |0.824                         |
|Previous AOA                            |2.93274                       |
|Changed AoA by                          |0.00534981                    |
+-----------------------------------------------------------------------+
+----------------------------------------------------------------+
|  Inner_Iter|    rms[Rho]|     rms[nu]|          CL|          CD|
+----------------------------------------------------------------+
|         202|   -2.464886|   -5.506753|    0.822834|    0.019918|
|         203|   -2.847617|   -5.514270|    0.822785|    0.019914|
|         204|   -3.086766|   -5.521271|    0.822737|    0.019911|
|         205|   -3.163181|   -5.528231|    0.822688|    0.019907|
|         206|   -3.216152|   -5.535206|    0.822640|    0.019903|
|         207|   -3.285193|   -5.542198|    0.822592|    0.019900|
|         208|   -3.370644|   -5.549196|    0.822546|    0.019897|
|         209|   -3.460480|   -5.556183|    0.822500|    0.019893|
|         210|   -3.539364|   -5.563144|    0.822457|    0.019890|
|         211|   -3.599344|   -5.570060|    0.822415|    0.019888|
|         212|   -3.641247|   -5.576913|    0.822375|    0.019885|
|         213|   -3.667630|   -5.583688|    0.822337|    0.019882|
|         214|   -3.681225|   -5.590373|    0.822302|    0.019880|
|         215|   -3.687450|   -5.596956|    0.822270|    0.019878|
|         216|   -3.693222|   -5.603426|    0.822240|    0.019876|
|         217|   -3.703543|   -5.609772|    0.822213|    0.019874|
|         218|   -3.719922|   -5.615995|    0.822190|    0.019873|
|         219|   -3.740877|   -5.622085|    0.822169|    0.019872|
|         220|   -3.763464|   -5.628039|    0.822152|    0.019871|
|         221|   -3.785148|   -5.633860|    0.822139|    0.019870|
|         222|   -3.805109|   -5.639550|    0.822129|    0.019870|
|         223|   -3.824175|   -5.645111|    0.822122|    0.019870|
|         224|   -3.843665|   -5.650546|    0.822119|    0.019870|
|         225|   -3.864261|   -5.655856|    0.822120|    0.019870|
|         226|   -3.885613|   -5.661046|    0.822124|    0.019871|
|         227|   -3.906590|   -5.666118|    0.822132|    0.019871|
|         228|   -3.925801|   -5.671079|    0.822143|    0.019872|
|         229|   -3.942069|   -5.675934|    0.822158|    0.019874|
|         230|   -3.954729|   -5.680689|    0.822176|    0.019875|
|         231|   -3.963764|   -5.685347|    0.822197|    0.019877|
|         232|   -3.969812|   -5.689912|    0.822222|    0.019878|
|         233|   -3.974020|   -5.694387|    0.822250|    0.019880|
|         234|   -3.977757|   -5.698773|    0.822281|    0.019883|
|         235|   -3.982288|   -5.703075|    0.822315|    0.019885|
|         236|   -3.988538|   -5.707293|    0.822352|    0.019888|
|         237|   -3.996972|   -5.711429|    0.822391|    0.019890|
|         238|   -4.007576|   -5.715482|    0.822433|    0.019893|
|         239|   -4.019887|   -5.719454|    0.822478|    0.019896|
|         240|   -4.033065|   -5.723345|    0.822524|    0.019899|
|         241|   -4.046009|   -5.727158|    0.822572|    0.019902|
|         242|   -4.057575|   -5.730894|    0.822622|    0.019905|
|         243|   -4.066862|   -5.734559|    0.822674|    0.019908|
|         244|   -4.073492|   -5.738156|    0.822727|    0.019912|
|         245|   -4.077725|   -5.741690|    0.822782|    0.019915|
|         246|   -4.080346|   -5.745168|    0.822837|    0.019918|
|         247|   -4.082393|   -5.748603|    0.822894|    0.019921|
|         248|   -4.084850|   -5.751995|    0.822951|    0.019925|
|         249|   -4.088444|   -5.755354|    0.823009|    0.019928|
|         250|   -4.093552|   -5.758690|    0.823068|    0.019931|
|         251|   -4.100215|   -5.762012|    0.823128|    0.019934|
|         252|   -4.108198|   -5.765326|    0.823188|    0.019937|
|         253|   -4.117097|   -5.768641|    0.823248|    0.019940|
|         254|   -4.126446|   -5.771961|    0.823309|    0.019943|
|         255|   -4.135823|   -5.775291|    0.823370|    0.019946|
|         256|   -4.144931|   -5.778637|    0.823432|    0.019949|
|         257|   -4.153646|   -5.782003|    0.823494|    0.019952|
|         258|   -4.162008|   -5.785395|    0.823556|    0.019955|
|         259|   -4.170180|   -5.788816|    0.823619|    0.019957|
|         260|   -4.178389|   -5.792271|    0.823682|    0.019960|
|         261|   -4.186862|   -5.795763|    0.823745|    0.019962|
|         262|   -4.195784|   -5.799299|    0.823808|    0.019964|
|         263|   -4.205280|   -5.802875|    0.823872|    0.019967|
|         264|   -4.215408|   -5.806491|    0.823935|    0.019969|
|         265|   -4.226162|   -5.810149|    0.823999|    0.019971|
|         266|   -4.237509|   -5.813849|    0.824063|    0.019973|
|         267|   -4.249400|   -5.817595|    0.824126|    0.019975|
|         268|   -4.261786|   -5.821388|    0.824190|    0.019977|
|         269|   -4.274621|   -5.825232|    0.824253|    0.019979|
|         270|   -4.287868|   -5.829133|    0.824315|    0.019981|
|         271|   -4.301492|   -5.833096|    0.824377|    0.019982|
|         272|   -4.315452|   -5.837129|    0.824439|    0.019984|
|         273|   -4.329692|   -5.841243|    0.824499|    0.019985|
|         274|   -4.344137|   -5.845444|    0.824558|    0.019987|
|         275|   -4.358679|   -5.849737|    0.824616|    0.019989|
|         276|   -4.373186|   -5.854128|    0.824673|    0.019990|
|         277|   -4.387492|   -5.858619|    0.824729|    0.019991|
|         278|   -4.401414|   -5.863214|    0.824782|    0.019993|
|         279|   -4.414748|   -5.867912|    0.824834|    0.019994|
|         280|   -4.427289|   -5.872713|    0.824884|    0.019996|
|         281|   -4.438834|   -5.877613|    0.824931|    0.019997|
|         282|   -4.449200|   -5.882607|    0.824977|    0.019998|
|         283|   -4.458236|   -5.887687|    0.825020|    0.020000|
|         284|   -4.465832|   -5.892844|    0.825061|    0.020001|
|         285|   -4.471928|   -5.898068|    0.825099|    0.020002|
|         286|   -4.476520|   -5.903346|    0.825135|    0.020003|
|         287|   -4.479656|   -5.908666|    0.825168|    0.020005|
|         288|   -4.481437|   -5.914019|    0.825199|    0.020006|
|         289|   -4.481998|   -5.919399|    0.825227|    0.020007|
|         290|   -4.481507|   -5.924798|    0.825252|    0.020008|
|         291|   -4.480144|   -5.930214|    0.825276|    0.020010|
|         292|   -4.478095|   -5.935642|    0.825296|    0.020011|
|         293|   -4.475540|   -5.941083|    0.825315|    0.020012|
|         294|   -4.472648|   -5.946539|    0.825331|    0.020013|
|         295|   -4.469570|   -5.952017|    0.825345|    0.020014|
|         296|   -4.466439|   -5.957527|    0.825357|    0.020015|
|         297|   -4.463368|   -5.963082|    0.825367|    0.020016|
|         298|   -4.460449|   -5.968696|    0.825375|    0.020017|
|         299|   -4.457762|   -5.974384|    0.825381|    0.020018|
|         300|   -4.455365|   -5.980161|    0.825386|    0.020019|
|         301|   -4.453308|   -5.986040|    0.825392|    0.019920|
+-----------------------------------------------------------------------+
|Fixed CL Mode                           |Value                         |
+-----------------------------------------------------------------------+
|Current CL                              |0.825392                      |
|Target CL                               |0.824                         |
|Previous AOA                            |2.93809                       |
|Changed AoA by                          |-0.00693043                   |
+-----------------------------------------------------------------------+
+----------------------------------------------------------------+
|  Inner_Iter|    rms[Rho]|     rms[nu]|          CL|          CD|
+----------------------------------------------------------------+
|         302|   -2.352603|   -5.967968|    0.825394|    0.019920|
|         303|   -2.737732|   -5.985864|    0.825395|    0.019921|
|         304|   -2.984656|   -5.995466|    0.825396|    0.019921|
|         305|   -3.065794|   -6.003543|    0.825395|    0.019922|
|         306|   -3.120618|   -6.011173|    0.825395|    0.019922|
|         307|   -3.191329|   -6.018574|    0.825393|    0.019922|
|         308|   -3.278698|   -6.025794|    0.825392|    0.019922|
|         309|   -3.369538|   -6.032818|    0.825391|    0.019923|
|         310|   -3.446379|   -6.039630|    0.825389|    0.019923|
|         311|   -3.500469|   -6.046198|    0.825389|    0.019922|
|         312|   -3.534180|   -6.052506|    0.825389|    0.019922|
|         313|   -3.552409|   -6.058573|    0.825389|    0.019922|
|         314|   -3.559728|   -6.064437|    0.825391|    0.019922|
|         315|   -3.562167|   -6.070118|    0.825393|    0.019921|
|         316|   -3.566100|   -6.075610|    0.825397|    0.019921|
|         317|   -3.575625|   -6.080881|    0.825402|    0.019921|
|         318|   -3.591522|   -6.085904|    0.825409|    0.019920|
|         319|   -3.611826|   -6.090659|    0.825417|    0.019920|
|         320|   -3.633264|   -6.095143|    0.825427|    0.019920|
|         321|   -3.653073|   -6.099360|    0.825438|    0.019919|
|         322|   -3.670324|   -6.103316|    0.825452|    0.019919|
|         323|   -3.685867|   -6.107022|    0.825467|    0.019919|
|         324|   -3.701178|   -6.110496|    0.825484|    0.019918|
|         325|   -3.717248|   -6.113759|    0.825502|    0.019918|
|         326|   -3.734191|   -6.116845|    0.825523|    0.019918|
|         327|   -3.751456|   -6.119795|    0.825545|    0.019918|
|         328|   -3.768208|   -6.122654|    0.825569|    0.019918|
|         329|   -3.783634|   -6.125475|    0.825595|    0.019918|
|         330|   -3.797099|   -6.128305|    0.825622|    0.019918|
|         331|   -3.808273|   -6.131182|    0.825650|    0.019919|
|         332|   -3.817241|   -6.134137|    0.825679|    0.019919|
|         333|   -3.824543|   -6.137188|    0.825709|    0.019919|
|         334|   -3.831068|   -6.140356|    0.825740|    0.019920|
|         335|   -3.837828|   -6.143645|    0.825771|    0.019920|
|         336|   -3.845716|   -6.147047|    0.825802|    0.019921|
|         337|   -3.855331|   -6.150544|    0.825834|    0.019922|
|         338|   -3.866900|   -6.154120|    0.825865|    0.019922|
|         339|   -3.880263|   -6.157749|    0.825896|    0.019923|
|         340|   -3.894894|   -6.161402|    0.825926|    0.019923|
|         341|   -3.909975|   -6.165040|    0.825956|    0.019924|
|         342|   -3.924550|   -6.168628|    0.825984|    0.019925|
|         343|   -3.937745|   -6.172133|    0.826011|    0.019925|
|         344|   -3.949030|   -6.175511|    0.826037|    0.019926|
|         345|   -3.958382|   -6.178735|    0.826060|    0.019926|
|         346|   -3.966289|   -6.181792|    0.826082|    0.019927|
|         347|   -3.973562|   -6.184644|    0.826101|    0.019927|
|         348|   -3.981088|   -6.187284|    0.826118|    0.019927|
|         349|   -3.989596|   -6.189721|    0.826133|    0.019927|
|         350|   -3.999529|   -6.191979|    0.826144|    0.019927|
|         351|   -4.011003|   -6.194081|    0.826153|    0.019926|
|         352|   -4.023834|   -6.196059|    0.826159|    0.019926|
|         353|   -4.037617|   -6.197948|    0.826161|    0.019925|
|         354|   -4.051826|   -6.199811|    0.826160|    0.019924|
|         355|   -4.065934|   -6.201700|    0.826156|    0.019923|
|         356|   -4.079518|   -6.203667|    0.826149|    0.019922|
|         357|   -4.092334|   -6.205769|    0.826139|    0.019921|
|         358|   -4.104345|   -6.208059|    0.826125|    0.019919|
|         359|   -4.115689|   -6.210588|    0.826108|    0.019917|
|         360|   -4.126611|   -6.213405|    0.826089|    0.019915|
|         361|   -4.137392|   -6.216527|    0.826066|    0.019913|
|         362|   -4.148277|   -6.219982|    0.826041|    0.019911|
|         363|   -4.159446|   -6.223784|    0.826014|    0.019909|
|         364|   -4.170998|   -6.227939|    0.825985|    0.019907|
|         365|   -4.182966|   -6.232434|    0.825955|    0.019904|
|         366|   -4.195337|   -6.237245|    0.825923|    0.019902|
|         367|   -4.208077|   -6.242326|    0.825891|    0.019899|
|         368|   -4.221152|   -6.247618|    0.825857|    0.019896|
|         369|   -4.234540|   -6.253040|    0.825824|    0.019894|
|         370|   -4.248232|   -6.258499|    0.825792|    0.019892|
|         371|   -4.262231|   -6.263875|    0.825760|    0.019889|
|         372|   -4.276539|   -6.269034|    0.825729|    0.019887|
|         373|   -4.291151|   -6.273826|    0.825700|    0.019885|
|         374|   -4.306043|   -6.278101|    0.825673|    0.019883|
|         375|   -4.321170|   -6.281706|    0.825648|    0.019881|
|         376|   -4.336464|   -6.284504|    0.825626|    0.019880|
|         377|   -4.351834|   -6.286385|    0.825607|    0.019879|
|         378|   -4.367174|   -6.287277|    0.825591|    0.019878|
|         379|   -4.382363|   -6.287152|    0.825579|    0.019877|
|         380|   -4.397274|   -6.286025|    0.825571|    0.019876|
|         381|   -4.411779|   -6.283957|    0.825566|    0.019876|
|         382|   -4.425754|   -6.281046|    0.825565|    0.019876|
|         383|   -4.439082|   -6.277427|    0.825569|    0.019877|
|         384|   -4.451661|   -6.273254|    0.825576|    0.019877|
|         385|   -4.463407|   -6.268689|    0.825588|    0.019878|
|         386|   -4.474258|   -6.263902|    0.825603|    0.019879|
|         387|   -4.484177|   -6.259056|    0.825622|    0.019881|
|         388|   -4.493157|   -6.254303|    0.825645|    0.019882|
|         389|   -4.501224|   -6.249779|    0.825672|    0.019884|
|         390|   -4.508426|   -6.245603|    0.825701|    0.019886|
|         391|   -4.514820|   -6.241870|    0.825734|    0.019888|
|         392|   -4.520494|   -6.238657|    0.825770|    0.019891|
|         393|   -4.525544|   -6.236020|    0.825808|    0.019893|
|         394|   -4.530071|   -6.233996|    0.825849|    0.019896|
|         395|   -4.534170|   -6.232617|    0.825892|    0.019899|
|         396|   -4.537932|   -6.231867|    0.825936|    0.019902|
|         397|   -4.541439|   -6.231725|    0.825983|    0.019905|
|         398|   -4.544760|   -6.232166|    0.826030|    0.019908|
|         399|   -4.547949|   -6.233150|    0.826079|    0.019912|
|         400|   -4.551050|   -6.234627|    0.826129|    0.019915|
|         401|   -4.554091|   -6.236533|    0.826183|    0.019765|
+-----------------------------------------------------------------------+
|Fixed CL Mode                           |Value                         |
+-----------------------------------------------------------------------+
|Current CL                              |0.826183                      |
|Target CL                               |0.824                         |
|Previous AOA                            |2.93116                       |
|Changed AoA by                          |-0.0106444                    |
+-----------------------------------------------------------------------+
+----------------------------------------------------------------+
|  Inner_Iter|    rms[Rho]|     rms[nu]|          CL|          CD|
+----------------------------------------------------------------+
|         402|   -2.166206|   -6.101518|    0.826234|    0.019768|
|         403|   -2.550205|   -6.162481|    0.826285|    0.019772|
|         404|   -2.793400|   -6.185178|    0.826336|    0.019775|
|         405|   -2.872362|   -6.199370|    0.826387|    0.019779|
|         406|   -2.926518|   -6.210460|    0.826438|    0.019782|
|         407|   -2.996774|   -6.219694|    0.826489|    0.019786|
|         408|   -3.083776|   -6.227406|    0.826539|    0.019789|
|         409|   -3.174992|   -6.233808|    0.826588|    0.019792|
|         410|   -3.253955|   -6.238954|    0.826636|    0.019796|
|         411|   -3.312063|   -6.242903|    0.826683|    0.019799|
|         412|   -3.350665|   -6.245790|    0.826729|    0.019802|
|         413|   -3.373365|   -6.247924|    0.826774|    0.019806|
|         414|   -3.383853|   -6.249688|    0.826818|    0.019809|
|         415|   -3.388038|   -6.251384|    0.826860|    0.019812|
|         416|   -3.392772|   -6.253122|    0.826901|    0.019815|
|         417|   -3.402722|   -6.254882|    0.826940|    0.019818|
|         418|   -3.419057|   -6.256636|    0.826977|    0.019821|
|         419|   -3.440011|   -6.258397|    0.827012|    0.019824|
|         420|   -3.462391|   -6.260216|    0.827046|    0.019827|
|         421|   -3.483459|   -6.262136|    0.827078|    0.019829|
|         422|   -3.502294|   -6.264154|    0.827107|    0.019832|
|         423|   -3.519751|   -6.266220|    0.827135|    0.019834|
|         424|   -3.537274|   -6.268258|    0.827161|    0.019837|
|         425|   -3.555741|   -6.270191|    0.827185|    0.019839|
|         426|   -3.575059|   -6.271947|    0.827206|    0.019841|
|         427|   -3.594397|   -6.273487|    0.827226|    0.019843|
|         428|   -3.612638|   -6.274801|    0.827244|    0.019845|
|         429|   -3.628768|   -6.275882|    0.827259|    0.019847|
|         430|   -3.642094|   -6.276767|    0.827272|    0.019849|
|         431|   -3.652391|   -6.277495|    0.827283|    0.019851|
|         432|   -3.659977|   -6.278095|    0.827291|    0.019852|
|         433|   -3.665687|   -6.278565|    0.827298|    0.019854|
|         434|   -3.670675|   -6.278932|    0.827302|    0.019855|
|         435|   -3.676123|   -6.279207|    0.827304|    0.019856|
|         436|   -3.682984|   -6.279395|    0.827303|    0.019857|
|         437|   -3.691825|   -6.279469|    0.827300|    0.019858|
|         438|   -3.702776|   -6.279448|    0.827295|    0.019859|
|         439|   -3.715535|   -6.279365|    0.827288|    0.019860|
|         440|   -3.729417|   -6.279232|    0.827278|    0.019860|
|         441|   -3.743449|   -6.279017|    0.827266|    0.019861|
|         442|   -3.756555|   -6.278690|    0.827251|    0.019861|
|         443|   -3.767822|   -6.278319|    0.827235|    0.019861|
|         444|   -3.776775|   -6.277912|    0.827216|    0.019861|
|         445|   -3.783533|   -6.277526|    0.827195|    0.019861|
|         446|   -3.788753|   -6.277234|    0.827171|    0.019861|
|         447|   -3.793394|   -6.277020|    0.827145|    0.019861|
|         448|   -3.798428|   -6.276929|    0.827116|    0.019860|
|         449|   -3.804613|   -6.277003|    0.827085|    0.019860|
|         450|   -3.812379|   -6.277268|    0.827051|    0.019859|
|         451|   -3.821814|   -6.277724|    0.827014|    0.019858|
|         452|   -3.832711|   -6.278397|    0.826975|    0.019857|
|         453|   -3.844655|   -6.279292|    0.826932|    0.019856|
|         454|   -3.857138|   -6.280421|    0.826887|    0.019855|
|         455|   -3.869669|   -6.281796|    0.826839|    0.019853|
|         456|   -3.881875|   -6.283437|    0.826788|    0.019851|
|         457|   -3.893560|   -6.285344|    0.826734|    0.019849|
|         458|   -3.904724|   -6.287517|    0.826677|    0.019847|
|         459|   -3.915522|   -6.289988|    0.826617|    0.019845|
|         460|   -3.926201|   -6.292803|    0.826554|    0.019842|
|         461|   -3.937029|   -6.295997|    0.826489|    0.019840|
|         462|   -3.948235|   -6.299600|    0.826422|    0.019837|
|         463|   -3.959983|   -6.303671|    0.826353|    0.019834|
|         464|   -3.972361|   -6.308266|    0.826282|    0.019831|
|         465|   -3.985391|   -6.313438|    0.826210|    0.019828|
|         466|   -3.999056|   -6.319230|    0.826136|    0.019824|
|         467|   -4.013317|   -6.325669|    0.826062|    0.019821|
|         468|   -4.028136|   -6.332816|    0.825988|    0.019817|
|         469|   -4.043489|   -6.340716|    0.825913|    0.019814|
|         470|   -4.059361|   -6.349406|    0.825840|    0.019810|
|         471|   -4.075753|   -6.358875|    0.825768|    0.019807|
|         472|   -4.092661|   -6.369064|    0.825697|    0.019803|
|         473|   -4.110076|   -6.379939|    0.825629|    0.019800|
|         474|   -4.127964|   -6.391391|    0.825563|    0.019796|
|         475|   -4.146266|   -6.403242|    0.825500|    0.019793|
|         476|   -4.164891|   -6.415238|    0.825442|    0.019790|
|         477|   -4.183713|   -6.427056|    0.825387|    0.019786|
|         478|   -4.202575|   -6.438287|    0.825337|    0.019783|
|         479|   -4.221292|   -6.448434|    0.825291|    0.019780|
|         480|   -4.239657|   -6.456955|    0.825251|    0.019778|
|         481|   -4.257447|   -6.463318|    0.825216|    0.019775|
|         482|   -4.274435|   -6.467039|    0.825187|    0.019773|
|         483|   -4.290398|   -6.467805|    0.825163|    0.019770|
|         484|   -4.305133|   -6.465506|    0.825145|    0.019768|
|         485|   -4.318472|   -6.460251|    0.825133|    0.019766|
|         486|   -4.330291|   -6.452399|    0.825128|    0.019764|
|         487|   -4.340525|   -6.442461|    0.825128|    0.019763|
|         488|   -4.349172|   -6.431045|    0.825133|    0.019761|
|         489|   -4.356291|   -6.418776|    0.825145|    0.019760|
|         490|   -4.361999|   -6.406246|    0.825161|    0.019759|
|         491|   -4.366456|   -6.393968|    0.825183|    0.019758|
|         492|   -4.369849|   -6.382397|    0.825210|    0.019757|
|         493|   -4.372382|   -6.371902|    0.825242|    0.019756|
|         494|   -4.374259|   -6.362770|    0.825278|    0.019755|
|         495|   -4.375670|   -6.355225|    0.825318|    0.019755|
|         496|   -4.376791|   -6.349441|    0.825362|    0.019754|
|         497|   -4.377770|   -6.345554|    0.825410|    0.019754|
|         498|   -4.378734|   -6.343664|    0.825460|    0.019754|
|         499|   -4.379785|   -6.343855|    0.825514|    0.019754|
|         500|   -4.380999|   -6.346166|    0.825570|    0.019754|
|         501|   -4.382436|   -6.350625|    0.825630|    0.019641|
+-----------------------------------------------------------------------+
|Fixed CL Mode                           |Value                         |
+-----------------------------------------------------------------------+
|Current CL                              |0.82563                       |
|Target CL                               |0.824                         |
|Previous AOA                            |2.92051                       |
|Changed AoA by                          |-0.00784818                   |
+-----------------------------------------------------------------------+
+----------------------------------------------------------------+
|  Inner_Iter|    rms[Rho]|     rms[nu]|          CL|          CD|
+----------------------------------------------------------------+
|         502|   -2.298533|   -6.224918|    0.825690|    0.019641|
|         503|   -2.681807|   -6.287778|    0.825751|    0.019641|
|         504|   -2.922530|   -6.316297|    0.825813|    0.019642|
|         505|   -2.999939|   -6.338790|    0.825876|    0.019642|
|         506|   -3.053492|   -6.360374|    0.825939|    0.019643|
|         507|   -3.123252|   -6.382171|    0.826003|    0.019644|
|         508|   -3.209724|   -6.404311|    0.826066|    0.019645|
|         509|   -3.300740|   -6.426674|    0.826128|    0.019646|
|         510|   -3.380479|   -6.448894|    0.826190|    0.019647|
|         511|   -3.440554|   -6.470296|    0.826251|    0.019648|
|         512|   -3.481808|   -6.490098|    0.826310|    0.019649|
|         513|   -3.507089|   -6.507694|    0.826367|    0.019650|
|         514|   -3.519489|   -6.522664|    0.826423|    0.019652|
|         515|   -3.524741|   -6.534555|    0.826476|    0.019653|
|         516|   -3.529895|   -6.542767|    0.826527|    0.019655|
|         517|   -3.539925|   -6.546722|    0.826575|    0.019656|
|         518|   -3.556230|   -6.546202|    0.826621|    0.019658|
|         519|   -3.577188|   -6.541503|    0.826663|    0.019660|
|         520|   -3.599705|   -6.533325|    0.826702|    0.019661|
|         521|   -3.621117|   -6.522532|    0.826738|    0.019663|
|         522|   -3.640542|   -6.509956|    0.826771|    0.019665|
|         523|   -3.658827|   -6.496282|    0.826800|    0.019667|
|         524|   -3.677368|   -6.482048|    0.826826|    0.019668|
|         525|   -3.696949|   -6.467690|    0.826848|    0.019670|
|         526|   -3.717340|   -6.453543|    0.826867|    0.019672|
|         527|   -3.737549|   -6.439871|    0.826882|    0.019673|
|         528|   -3.756312|   -6.426896|    0.826894|    0.019675|
|         529|   -3.772527|   -6.414776|    0.826902|    0.019676|
|         530|   -3.785510|   -6.403643|    0.826906|    0.019678|
|         531|   -3.795133|   -6.393507|    0.826908|    0.019679|
|         532|   -3.801875|   -6.384360|    0.826906|    0.019680|
|         533|   -3.806728|   -6.376187|    0.826900|    0.019682|
|         534|   -3.810957|   -6.368925|    0.826892|    0.019683|
|         535|   -3.815797|   -6.362506|    0.826881|    0.019684|
|         536|   -3.822187|   -6.356796|    0.826867|    0.019685|
|         537|   -3.830643|   -6.351685|    0.826850|    0.019687|
|         538|   -3.841217|   -6.347071|    0.826830|    0.019688|
|         539|   -3.853518|   -6.342855|    0.826808|    0.019689|
|         540|   -3.866772|   -6.338957|    0.826784|    0.019690|
|         541|   -3.879933|   -6.335301|    0.826758|    0.019691|
|         542|   -3.891885|   -6.331794|    0.826730|    0.019692|
|         543|   -3.901727|   -6.328398|    0.826699|    0.019693|
|         544|   -3.909047|   -6.325075|    0.826667|    0.019694|
|         545|   -3.914054|   -6.321803|    0.826634|    0.019695|
|         546|   -3.917489|   -6.318568|    0.826599|    0.019697|
|         547|   -3.920362|   -6.315360|    0.826562|    0.019698|
|         548|   -3.923654|   -6.312143|    0.826523|    0.019699|
|         549|   -3.928104|   -6.308922|    0.826483|    0.019700|
|         550|   -3.934108|   -6.305701|    0.826442|    0.019701|
|         551|   -3.941721|   -6.302483|    0.826399|    0.019702|
|         552|   -3.950719|   -6.299270|    0.826355|    0.019703|
|         553|   -3.960692|   -6.296042|    0.826309|    0.019705|
|         554|   -3.971158|   -6.292794|    0.826261|    0.019706|
|         555|   -3.981672|   -6.289519|    0.826212|    0.019707|
|         556|   -3.991911|   -6.286185|    0.826161|    0.019708|
|         557|   -4.001727|   -6.282790|    0.826109|    0.019709|
|         558|   -4.011150|   -6.279320|    0.826055|    0.019710|
|         559|   -4.020343|   -6.275770|    0.826000|    0.019711|
|         560|   -4.029546|   -6.272137|    0.825943|    0.019712|
|         561|   -4.039003|   -6.268427|    0.825885|    0.019713|
|         562|   -4.048925|   -6.264653|    0.825825|    0.019713|
|         563|   -4.059453|   -6.260843|    0.825764|    0.019714|
|         564|   -4.070663|   -6.257033|    0.825702|    0.019715|
|         565|   -4.082576|   -6.253276|    0.825639|    0.019715|
|         566|   -4.095176|   -6.249611|    0.825576|    0.019716|
|         567|   -4.108434|   -6.246091|    0.825512|    0.019716|
|         568|   -4.122319|   -6.242775|    0.825447|    0.019717|
|         569|   -4.136815|   -6.239722|    0.825383|    0.019717|
|         570|   -4.151917|   -6.236989|    0.825319|    0.019717|
|         571|   -4.167628|   -6.234618|    0.825256|    0.019717|
|         572|   -4.183952|   -6.232639|    0.825194|    0.019717|
|         573|   -4.200882|   -6.231066|    0.825134|    0.019717|
|         574|   -4.218393|   -6.229896|    0.825075|    0.019717|
|         575|   -4.236433|   -6.229112|    0.825018|    0.019717|
|         576|   -4.254921|   -6.228679|    0.824963|    0.019717|
|         577|   -4.273739|   -6.228546|    0.824911|    0.019717|
|         578|   -4.292738|   -6.228646|    0.824863|    0.019717|
|         579|   -4.311736|   -6.228893|    0.824817|    0.019716|
|         580|   -4.330520|   -6.229175|    0.824775|    0.019716|
|         581|   -4.348851|   -6.229384|    0.824737|    0.019716|
|         582|   -4.366476|   -6.229406|    0.824703|    0.019715|
|         583|   -4.383129|   -6.229136|    0.824673|    0.019715|
|         584|   -4.398554|   -6.228474|    0.824647|    0.019714|
|         585|   -4.412518|   -6.227339|    0.824626|    0.019714|
|         586|   -4.424828|   -6.225684|    0.824609|    0.019713|
|         587|   -4.435353|   -6.223483|    0.824596|    0.019713|
|         588|   -4.444029|   -6.220743|    0.824588|    0.019712|
|         589|   -4.450872|   -6.217506|    0.824584|    0.019711|
|         590|   -4.455970|   -6.213841|    0.824585|    0.019711|
|         591|   -4.459477|   -6.209844|    0.824589|    0.019710|
|         592|   -4.461590|   -6.205628|    0.824598|    0.019709|
|         593|   -4.462538|   -6.201316|    0.824611|    0.019709|
|         594|   -4.462558|   -6.197035|    0.824627|    0.019708|
|         595|   -4.461882|   -6.192909|    0.824647|    0.019707|
|         596|   -4.460728|   -6.189053|    0.824670|    0.019706|
|         597|   -4.459287|   -6.185566|    0.824696|    0.019705|
|         598|   -4.457729|   -6.182533|    0.824725|    0.019704|
|         599|   -4.456191|   -6.180021|    0.824757|    0.019703|
|         600|   -4.454790|   -6.178091|    0.824791|    0.019702|
|         601|   -4.453617|   -6.176747|    0.824828|    0.019644|
+-----------------------------------------------------------------------+
|Fixed CL Mode                           |Value                         |
+-----------------------------------------------------------------------+
|Current CL                              |0.824828                      |
|Target CL                               |0.824                         |
|Previous AOA                            |2.91266                       |
|Changed AoA by                          |-0.00395311                   |
+-----------------------------------------------------------------------+
+----------------------------------------------------------------+
|  Inner_Iter|    rms[Rho]|     rms[nu]|          CL|          CD|
+----------------------------------------------------------------+
|         602|   -2.596350|   -6.156504|    0.824866|    0.019644|
|         603|   -2.978904|   -6.165809|    0.824906|    0.019643|
|         604|   -3.216887|   -6.169016|    0.824947|    0.019642|
|         605|   -3.292310|   -6.171425|    0.824989|    0.019641|
|         606|   -3.344874|   -6.173785|    0.825032|    0.019640|
|         607|   -3.413728|   -6.176205|    0.825075|    0.019639|
|         608|   -3.499157|   -6.178653|    0.825119|    0.019638|
|         609|   -3.589344|   -6.181065|    0.825162|    0.019638|
|         610|   -3.669229|   -6.183352|    0.825206|    0.019637|
|         611|   -3.730827|   -6.185410|    0.825248|    0.019636|
|         612|   -3.774574|   -6.187141|    0.825290|    0.019635|
|         613|   -3.802544|   -6.188472|    0.825332|    0.019635|
|         614|   -3.817123|   -6.189350|    0.825371|    0.019634|
|         615|   -3.823698|   -6.189732|    0.825410|    0.019634|
|         616|   -3.829409|   -6.189577|    0.825447|    0.019633|
|         617|   -3.839498|   -6.188864|    0.825482|    0.019632|
|         618|   -3.855616|   -6.187594|    0.825515|    0.019632|
|         619|   -3.876335|   -6.185806|    0.825546|    0.019631|
|         620|   -3.898727|   -6.183561|    0.825574|    0.019631|
|         621|   -3.920262|   -6.180939|    0.825601|    0.019630|
|         622|   -3.940126|   -6.178026|    0.825625|    0.019630|
|         623|   -3.959151|   -6.174909|    0.825646|    0.019629|
|         624|   -3.978644|   -6.171676|    0.825665|    0.019628|
|         625|   -3.999259|   -6.168411|    0.825681|    0.019628|
|         626|   -4.020609|   -6.165193|    0.825695|    0.019627|
|         627|   -4.041531|   -6.162096|    0.825706|    0.019626|
|         628|   -4.060620|   -6.159185|    0.825714|    0.019626|
|         629|   -4.076710|   -6.156514|    0.825720|    0.019625|
|         630|   -4.089166|   -6.154128|    0.825724|    0.019624|
|         631|   -4.098006|   -6.152055|    0.825725|    0.019624|
|         632|   -4.103895|   -6.150316|    0.825724|    0.019623|
|         633|   -4.107986|   -6.148928|    0.825721|    0.019622|
|         634|   -4.111639|   -6.147863|    0.825715|    0.019622|
|         635|   -4.116103|   -6.147107|    0.825708|    0.019621|
|         636|   -4.122280|   -6.146634|    0.825699|    0.019620|
|         637|   -4.130609|   -6.146409|    0.825688|    0.019620|
|         638|   -4.141049|   -6.146395|    0.825676|    0.019619|
|         639|   -4.153113|   -6.146548|    0.825662|    0.019618|
|         640|   -4.165935|   -6.146826|    0.825646|    0.019618|
|         641|   -4.178398|   -6.147191|    0.825630|    0.019617|
|         642|   -4.189354|   -6.147596|    0.825613|    0.019617|
|         643|   -4.197917|   -6.148011|    0.825594|    0.019617|
|         644|   -4.203741|   -6.148406|    0.825575|    0.019617|
|         645|   -4.207122|   -6.148753|    0.825555|    0.019617|
|         646|   -4.208875|   -6.149030|    0.825534|    0.019617|
|         647|   -4.210051|   -6.149222|    0.825513|    0.019617|
|         648|   -4.211629|   -6.149320|    0.825492|    0.019617|
|         649|   -4.214322|   -6.149317|    0.825469|    0.019617|
|         650|   -4.218490|   -6.149211|    0.825447|    0.019618|
|         651|   -4.224159|   -6.149003|    0.825424|    0.019618|
|         652|   -4.231090|   -6.148698|    0.825400|    0.019619|
|         653|   -4.238881|   -6.148303|    0.825376|    0.019620|
|         654|   -4.247080|   -6.147823|    0.825351|    0.019621|
|         655|   -4.255287|   -6.147263|    0.825326|    0.019622|
|         656|   -4.263228|   -6.146629|    0.825301|    0.019623|
|         657|   -4.270798|   -6.145928|    0.825275|    0.019624|
|         658|   -4.278048|   -6.145162|    0.825248|    0.019625|
|         659|   -4.285146|   -6.144337|    0.825221|    0.019627|
|         660|   -4.292313|   -6.143461|    0.825193|    0.019628|
|         661|   -4.299771|   -6.142546|    0.825165|    0.019630|
|         662|   -4.307698|   -6.141595|    0.825136|    0.019631|
|         663|   -4.316216|   -6.140618|    0.825107|    0.019633|
|         664|   -4.325383|   -6.139627|    0.825077|    0.019635|
|         665|   -4.335214|   -6.138638|    0.825047|    0.019637|
|         666|   -4.345695|   -6.137668|    0.825016|    0.019638|
|         667|   -4.356800|   -6.136741|    0.824985|    0.019640|
|         668|   -4.368512|   -6.135879|    0.824954|    0.019642|
|         669|   -4.380820|   -6.135102|    0.824923|    0.019644|
|         670|   -4.393730|   -6.134436|    0.824892|    0.019646|
|         671|   -4.407253|   -6.133900|    0.824861|    0.019647|
|         672|   -4.421403|   -6.133523|    0.824830|    0.019649|
|         673|   -4.436187|   -6.133313|    0.824800|    0.019651|
|         674|   -4.451600|   -6.133278|    0.824771|    0.019653|
|         675|   -4.467616|   -6.133421|    0.824742|    0.019655|
|         676|   -4.484189|   -6.133744|    0.824715|    0.019656|
|         677|   -4.501251|   -6.134241|    0.824688|    0.019658|
|         678|   -4.518706|   -6.134891|    0.824663|    0.019660|
|         679|   -4.536439|   -6.135675|    0.824639|    0.019662|
|         680|   -4.554308|   -6.136564|    0.824617|    0.019663|
|         681|   -4.572150|   -6.137530|    0.824597|    0.019665|
|         682|   -4.589779|   -6.138538|    0.824578|    0.019666|
|         683|   -4.606994|   -6.139551|    0.824561|    0.019668|
|         684|   -4.623579|   -6.140533|    0.824546|    0.019669|
|         685|   -4.639313|   -6.141449|    0.824534|    0.019671|
|         686|   -4.653980|   -6.142267|    0.824523|    0.019672|
|         687|   -4.667383|   -6.142963|    0.824515|    0.019673|
|         688|   -4.679355|   -6.143515|    0.824508|    0.019674|
|         689|   -4.689772|   -6.143911|    0.824504|    0.019675|
|         690|   -4.698565|   -6.144149|    0.824502|    0.019676|
|         691|   -4.705723|   -6.144234|    0.824503|    0.019677|
|         692|   -4.711291|   -6.144184|    0.824505|    0.019678|
|         693|   -4.715369|   -6.144020|    0.824509|    0.019679|
|         694|   -4.718096|   -6.143773|    0.824515|    0.019680|
|         695|   -4.719642|   -6.143478|    0.824524|    0.019681|
|         696|   -4.720195|   -6.143174|    0.824533|    0.019681|
|         697|   -4.719945|   -6.142901|    0.824545|    0.019682|
|         698|   -4.719081|   -6.142695|    0.824558|    0.019682|
|         699|   -4.717780|   -6.142598|    0.824573|    0.019683|
|         700|   -4.716204|   -6.142645|    0.824589|    0.019683|
|         701|   -4.714496|   -6.142860|    0.824607|    0.019641|
+-----------------------------------------------------------------------+
|Fixed CL Mode                           |Value                         |
+-----------------------------------------------------------------------+
|Current CL                              |0.824607                      |
|Target CL                               |0.824                         |
|Previous AOA                            |2.90871                       |
|Changed AoA by                          |-0.0029445                    |
+-----------------------------------------------------------------------+
+----------------------------------------------------------------+
|  Inner_Iter|    rms[Rho]|     rms[nu]|          CL|          CD|
+----------------------------------------------------------------+
|         702|   -2.724363|   -6.133840|    0.824626|    0.019642|
|         703|   -3.107795|   -6.139097|    0.824645|    0.019642|
|         704|   -3.347924|   -6.141278|    0.824665|    0.019642|
|         705|   -3.424089|   -6.143043|    0.824686|    0.019642|
|         706|   -3.476661|   -6.144789|    0.824707|    0.019642|
|         707|   -3.545601|   -6.146597|    0.824729|    0.019643|
|         708|   -3.631319|   -6.148478|    0.824751|    0.019643|
|         709|   -3.721827|   -6.150432|    0.824773|    0.019643|
|         710|   -3.801703|   -6.152445|    0.824796|    0.019643|
|         711|   -3.862727|   -6.154498|    0.824818|    0.019643|
|         712|   -3.905450|   -6.156570|    0.824839|    0.019642|
|         713|   -3.932256|   -6.158649|    0.824861|    0.019642|
|         714|   -3.945851|   -6.160727|    0.824882|    0.019642|
|         715|   -3.951808|   -6.162792|    0.824902|    0.019642|
|         716|   -3.957257|   -6.164828|    0.824921|    0.019642|
|         717|   -3.967334|   -6.166815|    0.824940|    0.019641|
|         718|   -3.983574|   -6.168740|    0.824957|    0.019641|
|         719|   -4.004446|   -6.170596|    0.824974|    0.019640|
|         720|   -4.026922|   -6.172388|    0.824989|    0.019640|
|         721|   -4.048385|   -6.174122|    0.825004|    0.019639|
|         722|   -4.067976|   -6.175807|    0.825017|    0.019639|
|         723|   -4.086538|   -6.177457|    0.825028|    0.019638|
|         724|   -4.105430|   -6.179082|    0.825039|    0.019637|
|         725|   -4.125382|   -6.180702|    0.825048|    0.019637|
|         726|   -4.146097|   -6.182335|    0.825056|    0.019636|
|         727|   -4.166508|   -6.184001|    0.825063|    0.019635|
|         728|   -4.185297|   -6.185722|    0.825069|    0.019634|
|         729|   -4.201344|   -6.187516|    0.825073|    0.019633|
|         730|   -4.214005|   -6.189402|    0.825076|    0.019632|
|         731|   -4.223235|   -6.191395|    0.825078|    0.019631|
|         732|   -4.229613|   -6.193506|    0.825078|    0.019630|
|         733|   -4.234218|   -6.195739|    0.825078|    0.019629|
|         734|   -4.238370|   -6.198095|    0.825076|    0.019628|
|         735|   -4.243321|   -6.200569|    0.825074|    0.019626|
|         736|   -4.250006|   -6.203155|    0.825070|    0.019625|
|         737|   -4.258921|   -6.205839|    0.825066|    0.019624|
|         738|   -4.270089|   -6.208604|    0.825061|    0.019623|
|         739|   -4.283086|   -6.211433|    0.825055|    0.019621|
|         740|   -4.297092|   -6.214316|    0.825048|    0.019620|
|         741|   -4.311006|   -6.217219|    0.825041|    0.019619|
|         742|   -4.323645|   -6.220122|    0.825033|    0.019618|
|         743|   -4.334045|   -6.223008|    0.825025|    0.019617|
|         744|   -4.341754|   -6.225862|    0.825016|    0.019616|
|         745|   -4.346974|   -6.228670|    0.825006|    0.019615|
|         746|   -4.350477|   -6.231424|    0.824996|    0.019614|
|         747|   -4.353317|   -6.234120|    0.824986|    0.019613|
|         748|   -4.356524|   -6.236738|    0.824976|    0.019612|
|         749|   -4.360870|   -6.239271|    0.824964|    0.019611|
|         750|   -4.366770|   -6.241712|    0.824953|    0.019611|
|         751|   -4.374282|   -6.244057|    0.824941|    0.019610|
|         752|   -4.383173|   -6.246305|    0.824929|    0.019610|
|         753|   -4.393015|   -6.248453|    0.824916|    0.019609|
|         754|   -4.403307|   -6.250501|    0.824902|    0.019609|
|         755|   -4.413583|   -6.252452|    0.824889|    0.019608|
|         756|   -4.423507|   -6.254308|    0.824874|    0.019608|
|         757|   -4.432926|   -6.256067|    0.824859|    0.019608|
|         758|   -4.441868|   -6.257732|    0.824844|    0.019608|
|         759|   -4.450501|   -6.259307|    0.824828|    0.019608|
|         760|   -4.459068|   -6.260798|    0.824812|    0.019608|
|         761|   -4.467818|   -6.262212|    0.824795|    0.019608|
|         762|   -4.476960|   -6.263557|    0.824777|    0.019608|
|         763|   -4.486634|   -6.264845|    0.824759|    0.019608|
|         764|   -4.496911|   -6.266087|    0.824741|    0.019609|
|         765|   -4.507806|   -6.267296|    0.824722|    0.019609|
|         766|   -4.519298|   -6.268487|    0.824703|    0.019610|
|         767|   -4.531357|   -6.269677|    0.824684|    0.019610|
|         768|   -4.543952|   -6.270885|    0.824664|    0.019611|
|         769|   -4.557069|   -6.272131|    0.824645|    0.019611|
|         770|   -4.570710|   -6.273439|    0.824626|    0.019612|
|         771|   -4.584887|   -6.274828|    0.824607|    0.019613|
|         772|   -4.599616|   -6.276307|    0.824588|    0.019614|
|         773|   -4.614908|   -6.277884|    0.824570|    0.019615|
|         774|   -4.630758|   -6.279567|    0.824552|    0.019616|
|         775|   -4.647143|   -6.281362|    0.824535|    0.019617|
|         776|   -4.664017|   -6.283257|    0.824519|    0.019618|
|         777|   -4.681308|   -6.285238|    0.824504|    0.019619|
|         778|   -4.698922|   -6.287287|    0.824490|    0.019620|
|         779|   -4.716740|   -6.289382|    0.824477|    0.019622|
|         780|   -4.734622|   -6.291500|    0.824465|    0.019623|
|         781|   -4.752410|   -6.293611|    0.824455|    0.019624|
|         782|   -4.769926|   -6.295686|    0.824446|    0.019626|
|         783|   -4.786980|   -6.297692|    0.824438|    0.019628|
|         784|   -4.803375|   -6.299600|    0.824432|    0.019629|
|         785|   -4.818915|   -6.301382|    0.824428|    0.019631|
|         786|   -4.833410|   -6.303016|    0.824425|    0.019632|
|         787|   -4.846696|   -6.304487|    0.824423|    0.019634|
|         788|   -4.858637|   -6.305789|    0.824423|    0.019636|
|         789|   -4.869142|   -6.306920|    0.824425|    0.019638|
|         790|   -4.878167|   -6.307890|    0.824428|    0.019639|
|         791|   -4.885720|   -6.308714|    0.824433|    0.019641|
|         792|   -4.891857|   -6.309416|    0.824439|    0.019643|
|         793|   -4.896674|   -6.310025|    0.824446|    0.019645|
|         794|   -4.900301|   -6.310578|    0.824455|    0.019647|
|         795|   -4.902886|   -6.311111|    0.824465|    0.019648|
|         796|   -4.904591|   -6.311663|    0.824476|    0.019650|
|         797|   -4.905577|   -6.312269|    0.824488|    0.019652|
|         798|   -4.905997|   -6.312974|    0.824501|    0.019654|
|         799|   -4.905995|   -6.313812|    0.824515|    0.019655|
|         800|   -4.905702|   -6.314805|    0.824530|    0.019657|
|         801|   -4.905231|   -6.315972|    0.824546|    0.019621|
+-----------------------------------------------------------------------+
|Fixed CL Mode                           |Value                         |
+-----------------------------------------------------------------------+
|Current CL                              |0.824546                      |
|Target CL                               |0.824                         |
|Previous AOA                            |2.90577                       |
|Changed AoA by                          |-0.00264816                   |
+-----------------------------------------------------------------------+
+----------------------------------------------------------------+
|  Inner_Iter|    rms[Rho]|     rms[nu]|          CL|          CD|
+----------------------------------------------------------------+
|         802|   -2.770440|   -6.300804|    0.824562|    0.019622|
|         803|   -3.154313|   -6.310487|    0.824578|    0.019624|
|         804|   -3.396083|   -6.314627|    0.824595|    0.019626|
|         805|   -3.473375|   -6.317859|    0.824612|    0.019627|
|         806|   -3.526441|   -6.320885|    0.824629|    0.019629|
|         807|   -3.595795|   -6.323852|    0.824647|    0.019630|
|         808|   -3.681959|   -6.326788|    0.824664|    0.019631|
|         809|   -3.772731|   -6.329703|    0.824681|    0.019633|
|         810|   -3.852271|   -6.332591|    0.824699|    0.019634|
|         811|   -3.912188|   -6.335435|    0.824715|    0.019635|
|         812|   -3.953321|   -6.338224|    0.824732|    0.019637|
|         813|   -3.978522|   -6.340961|    0.824748|    0.019638|
|         814|   -3.990891|   -6.343659|    0.824764|    0.019639|
|         815|   -3.996151|   -6.346321|    0.824779|    0.019640|
|         816|   -4.001333|   -6.348939|    0.824793|    0.019640|
|         817|   -4.011392|   -6.351495|    0.824807|    0.019641|
|         818|   -4.027714|   -6.353975|    0.824819|    0.019642|
|         819|   -4.048665|   -6.356375|    0.824831|    0.019643|
|         820|   -4.071134|   -6.358701|    0.824843|    0.019643|
|         821|   -4.092442|   -6.360959|    0.824853|    0.019644|
|         822|   -4.111697|   -6.363161|    0.824863|    0.019644|
|         823|   -4.129746|   -6.365315|    0.824871|    0.019644|
|         824|   -4.147985|   -6.367429|    0.824879|    0.019644|
|         825|   -4.167208|   -6.369517|    0.824885|    0.019644|
|         826|   -4.187198|   -6.371593|    0.824891|    0.019644|
|         827|   -4.206983|   -6.373678|    0.824896|    0.019644|
|         828|   -4.225328|   -6.375792|    0.824900|    0.019644|
|         829|   -4.241159|   -6.377956|    0.824902|    0.019644|
|         830|   -4.253820|   -6.380190|    0.824904|    0.019643|
|         831|   -4.263203|   -6.382513|    0.824906|    0.019643|
|         832|   -4.269795|   -6.384942|    0.824906|    0.019642|
|         833|   -4.274584|   -6.387487|    0.824905|    0.019641|
|         834|   -4.278831|   -6.390149|    0.824904|    0.019641|
|         835|   -4.283760|   -6.392926|    0.824902|    0.019640|
|         836|   -4.290311|   -6.395812|    0.824899|    0.019639|
|         837|   -4.299009|   -6.398796|    0.824896|    0.019638|
|         838|   -4.309919|   -6.401869|    0.824891|    0.019637|
|         839|   -4.322672|   -6.405011|    0.824887|    0.019636|
|         840|   -4.336511|   -6.408201|    0.824881|    0.019635|
|         841|   -4.350401|   -6.411421|    0.824876|    0.019634|
|         842|   -4.363218|   -6.414655|    0.824869|    0.019633|
|         843|   -4.374029|   -6.417887|    0.824863|    0.019631|
|         844|   -4.382372|   -6.421101|    0.824855|    0.019630|
|         845|   -4.388406|   -6.424287|    0.824848|    0.019629|
|         846|   -4.392837|   -6.427435|    0.824840|    0.019628|
|         847|   -4.396663|   -6.430540|    0.824832|    0.019627|
|         848|   -4.400877|   -6.433594|    0.824823|    0.019625|
|         849|   -4.406239|   -6.436605|    0.824814|    0.019624|
|         850|   -4.413170|   -6.439563|    0.824804|    0.019623|
|         851|   -4.421740|   -6.442465|    0.824794|    0.019622|
|         852|   -4.431729|   -6.445295|    0.824784|    0.019621|
|         853|   -4.442718|   -6.448044|    0.824773|    0.019620|
|         854|   -4.454201|   -6.450710|    0.824762|    0.019619|
|         855|   -4.465697|   -6.453289|    0.824750|    0.019618|
|         856|   -4.476849|   -6.455778|    0.824738|    0.019617|
|         857|   -4.487478|   -6.458177|    0.824726|    0.019616|
|         858|   -4.497592|   -6.460483|    0.824713|    0.019615|
|         859|   -4.507348|   -6.462698|    0.824699|    0.019614|
|         860|   -4.516985|   -6.464824|    0.824685|    0.019613|
|         861|   -4.526755|   -6.466867|    0.824671|    0.019612|
|         862|   -4.536871|   -6.468832|    0.824656|    0.019611|
|         863|   -4.547478|   -6.470729|    0.824641|    0.019610|
|         864|   -4.558646|   -6.472578|    0.824626|    0.019610|
|         865|   -4.570389|   -6.474386|    0.824611|    0.019609|
|         866|   -4.582677|   -6.476168|    0.824595|    0.019608|
|         867|   -4.595467|   -6.477944|    0.824579|    0.019608|
|         868|   -4.608717|   -6.479736|    0.824563|    0.019607|
|         869|   -4.622396|   -6.481567|    0.824547|    0.019607|
|         870|   -4.636490|   -6.483459|    0.824532|    0.019606|
|         871|   -4.650993|   -6.485431|    0.824517|    0.019606|
|         872|   -4.665900|   -6.487499|    0.824502|    0.019606|
|         873|   -4.681197|   -6.489670|    0.824487|    0.019606|
|         874|   -4.696854|   -6.491956|    0.824474|    0.019606|
|         875|   -4.712817|   -6.494340|    0.824461|    0.019606|
|         876|   -4.729003|   -6.496800|    0.824449|    0.019606|
|         877|   -4.745307|   -6.499308|    0.824438|    0.019606|
|         878|   -4.761594|   -6.501830|    0.824428|    0.019606|
|         879|   -4.777712|   -6.504323|    0.824419|    0.019607|
|         880|   -4.793493|   -6.506746|    0.824411|    0.019607|
|         881|   -4.808757|   -6.509050|    0.824404|    0.019608|
|         882|   -4.823324|   -6.511180|    0.824399|    0.019609|
|         883|   -4.837019|   -6.513088|    0.824395|    0.019609|
|         884|   -4.849679|   -6.514731|    0.824392|    0.019610|
|         885|   -4.861168|   -6.516080|    0.824391|    0.019611|
|         886|   -4.871382|   -6.517121|    0.824392|    0.019612|
|         887|   -4.880256|   -6.517860|    0.824393|    0.019613|
|         888|   -4.887771|   -6.518323|    0.824396|    0.019614|
|         889|   -4.893953|   -6.518557|    0.824401|    0.019615|
|         890|   -4.898872|   -6.518625|    0.824406|    0.019616|
|         891|   -4.902631|   -6.518592|    0.824413|    0.019618|
|         892|   -4.905361|   -6.518522|    0.824421|    0.019619|
|         893|   -4.907210|   -6.518470|    0.824431|    0.019620|
|         894|   -4.908332|   -6.518485|    0.824441|    0.019622|
|         895|   -4.908880|   -6.518613|    0.824452|    0.019623|
|         896|   -4.908997|   -6.518900|    0.824464|    0.019625|
|         897|   -4.908816|   -6.519388|    0.824477|    0.019626|
|         898|   -4.908454|   -6.520124|    0.824491|    0.019628|
|         899|   -4.908012|   -6.521159|    0.824505|    0.019629|
|         900|   -4.907576|   -6.522533|    0.824520|    0.019631|
|         901|   -4.907217|   -6.524254|    0.824537|    0.019595|
+-----------------------------------------------------------------------+
|Fixed CL Mode                           |Value                         |
+-----------------------------------------------------------------------+
|Current CL                              |0.824537                      |
|Target CL                               |0.824                         |
|Previous AOA                            |2.90312                       |
[...]
|        5298|   -6.108321|   -7.628125|    0.824200|    0.019570|
|        5299|   -6.116101|   -7.636057|    0.824200|    0.019570|
|        5300|   -6.123449|   -7.643978|    0.824199|    0.019570|
|        5301|   -6.130318|   -7.651897|    0.824199|    0.019570|
|        5302|   -6.136672|   -7.659821|    0.824199|    0.019570|
|        5303|   -6.142485|   -7.667758|    0.824199|    0.019570|
|        5304|   -6.147745|   -7.675711|    0.824198|    0.019570|
|        5305|   -6.152452|   -7.683685|    0.824198|    0.019570|
|        5306|   -6.156621|   -7.691682|    0.824198|    0.019570|
|        5307|   -6.160277|   -7.699703|    0.824198|    0.019569|
|        5308|   -6.163456|   -7.707750|    0.824197|    0.019569|
|        5309|   -6.166204|   -7.715824|    0.824197|    0.019569|
|        5310|   -6.168575|   -7.723925|    0.824197|    0.019569|
|        5311|   -6.170626|   -7.732053|    0.824197|    0.019569|
|        5312|   -6.172419|   -7.740208|    0.824196|    0.019569|
|        5313|   -6.174017|   -7.748392|    0.824196|    0.019569|
|        5314|   -6.175480|   -7.756604|    0.824196|    0.019569|
|        5315|   -6.176870|   -7.764846|    0.824196|    0.019569|
|        5316|   -6.178243|   -7.773118|    0.824196|    0.019569|
|        5317|   -6.179649|   -7.781423|    0.824195|    0.019569|
|        5318|   -6.181136|   -7.789761|    0.824195|    0.019569|
|        5319|   -6.182742|   -7.798132|    0.824195|    0.019569|
|        5320|   -6.184499|   -7.806537|    0.824195|    0.019569|
|        5321|   -6.186434|   -7.814975|    0.824195|    0.019570|
|        5322|   -6.188564|   -7.823445|    0.824194|    0.019570|
|        5323|   -6.190898|   -7.831944|    0.824194|    0.019570|
|        5324|   -6.193439|   -7.840467|    0.824194|    0.019570|
|        5325|   -6.196180|   -7.849010|    0.824194|    0.019570|
|        5326|   -6.199108|   -7.857564|    0.824194|    0.019570|
|        5327|   -6.202200|   -7.866120|    0.824193|    0.019570|
|        5328|   -6.205430|   -7.874668|    0.824193|    0.019570|
|        5329|   -6.208762|   -7.883196|    0.824193|    0.019570|
|        5330|   -6.212156|   -7.891690|    0.824193|    0.019570|
|        5331|   -6.215565|   -7.900134|    0.824193|    0.019570|
|        5332|   -6.218942|   -7.908514|    0.824192|    0.019570|
|        5333|   -6.222236|   -7.916812|    0.824192|    0.019570|
|        5334|   -6.225394|   -7.925011|    0.824192|    0.019570|
|        5335|   -6.228368|   -7.933095|    0.824192|    0.019570|
|        5336|   -6.231112|   -7.941048|    0.824192|    0.019571|
|        5337|   -6.233583|   -7.948854|    0.824191|    0.019571|
|        5338|   -6.235749|   -7.956498|    0.824191|    0.019571|
|        5339|   -6.237584|   -7.963968|    0.824191|    0.019571|
|        5340|   -6.239072|   -7.971253|    0.824191|    0.019571|
|        5341|   -6.240211|   -7.978344|    0.824191|    0.019571|
|        5342|   -6.241005|   -7.985236|    0.824190|    0.019571|
|        5343|   -6.241474|   -7.991924|    0.824190|    0.019571|
|        5344|   -6.241644|   -7.998408|    0.824190|    0.019571|
|        5345|   -6.241553|   -8.004688|    0.824190|    0.019571|
|        5346|   -6.241245|   -8.010768|    0.824189|    0.019571|
|        5347|   -6.240771|   -8.016655|    0.824189|    0.019571|
|        5348|   -6.240184|   -8.022357|    0.824189|    0.019571|
|        5349|   -6.239543|   -8.027883|    0.824189|    0.019571|
|        5350|   -6.238904|   -8.033244|    0.824188|    0.019571|
|        5351|   -6.238324|   -8.038453|    0.824188|    0.019571|
|        5352|   -6.237859|   -8.043523|    0.824188|    0.019571|
|        5353|   -6.237560|   -8.048468|    0.824187|    0.019571|
|        5354|   -6.237474|   -8.053302|    0.824187|    0.019571|
|        5355|   -6.237646|   -8.058038|    0.824187|    0.019571|
|        5356|   -6.238113|   -8.062689|    0.824187|    0.019571|
|        5357|   -6.238909|   -8.067268|    0.824186|    0.019571|
|        5358|   -6.240061|   -8.071787|    0.824186|    0.019571|
|        5359|   -6.241591|   -8.076257|    0.824186|    0.019572|
|        5360|   -6.243517|   -8.080687|    0.824185|    0.019571|
|        5361|   -6.245848|   -8.085085|    0.824185|    0.019571|
|        5362|   -6.248591|   -8.089460|    0.824185|    0.019571|
|        5363|   -6.251746|   -8.093816|    0.824184|    0.019571|
|        5364|   -6.255306|   -8.098158|    0.824184|    0.019571|
|        5365|   -6.259261|   -8.102491|    0.824184|    0.019571|
|        5366|   -6.263594|   -8.106816|    0.824183|    0.019571|
|        5367|   -6.268283|   -8.111136|    0.824183|    0.019571|
|        5368|   -6.273301|   -8.115451|    0.824183|    0.019571|
|        5369|   -6.278614|   -8.119761|    0.824182|    0.019571|
|        5370|   -6.284184|   -8.124066|    0.824182|    0.019571|
|        5371|   -6.289969|   -8.128364|    0.824182|    0.019571|
|        5372|   -6.295920|   -8.132655|    0.824181|    0.019571|
|        5373|   -6.301984|   -8.136936|    0.824181|    0.019571|
|        5374|   -6.308106|   -8.141207|    0.824181|    0.019571|
|        5375|   -6.314228|   -8.145465|    0.824180|    0.019571|
|        5376|   -6.320288|   -8.149709|    0.824180|    0.019571|
|        5377|   -6.326226|   -8.153937|    0.824180|    0.019571|
|        5378|   -6.331980|   -8.158147|    0.824179|    0.019571|
|        5379|   -6.337494|   -8.162338|    0.824179|    0.019571|
|        5380|   -6.342711|   -8.166508|    0.824179|    0.019571|
|        5381|   -6.347583|   -8.170654|    0.824178|    0.019570|
|        5382|   -6.352067|   -8.174774|    0.824178|    0.019570|
|        5383|   -6.356127|   -8.178865|    0.824178|    0.019570|
|        5384|   -6.359738|   -8.182922|    0.824178|    0.019570|
|        5385|   -6.362881|   -8.186939|    0.824177|    0.019570|
|        5386|   -6.365550|   -8.190911|    0.824177|    0.019570|
|        5387|   -6.367745|   -8.194829|    0.824177|    0.019570|
|        5388|   -6.369476|   -8.198682|    0.824177|    0.019570|
|        5389|   -6.370759|   -8.202459|    0.824176|    0.019570|
|        5390|   -6.371618|   -8.206144|    0.824176|    0.019570|
|        5391|   -6.372080|   -8.209722|    0.824176|    0.019570|
|        5392|   -6.372177|   -8.213173|    0.824176|    0.019569|
|        5393|   -6.371942|   -8.216477|    0.824175|    0.019569|
|        5394|   -6.371408|   -8.219612|    0.824175|    0.019569|
|        5395|   -6.370609|   -8.222554|    0.824175|    0.019569|
|        5396|   -6.369577|   -8.225276|    0.824175|    0.019569|
|        5397|   -6.368341|   -8.227755|    0.824175|    0.019569|
|        5398|   -6.366928|   -8.229964|    0.824175|    0.019569|
|        5399|   -6.365363|   -8.231878|    0.824174|    0.019569|
|        5400|   -6.363668|   -8.233476|    0.824174|    0.019569|
|        5401|   -6.361861|   -8.234735|    0.824174|    0.019568|
|        5402|   -6.359959|   -8.235638|    0.824174|    0.019568|
|        5403|   -6.357974|   -8.236172|    0.824174|    0.019568|
|        5404|   -6.355918|   -8.236327|    0.824174|    0.019568|
|        5405|   -6.353802|   -8.236098|    0.824174|    0.019568|
|        5406|   -6.351634|   -8.235486|    0.824174|    0.019568|
|        5407|   -6.349422|   -8.234496|    0.824173|    0.019568|
|        5408|   -6.347172|   -8.233138|    0.824173|    0.019568|
|        5409|   -6.344891|   -8.231426|    0.824173|    0.019568|
|        5410|   -6.342586|   -8.229381|    0.824173|    0.019568|
|        5411|   -6.340263|   -8.227024|    0.824173|    0.019568|
|        5412|   -6.337929|   -8.224380|    0.824173|    0.019567|
|        5413|   -6.335591|   -8.221477|    0.824173|    0.019567|
|        5414|   -6.333257|   -8.218342|    0.824173|    0.019567|
|        5415|   -6.330934|   -8.215006|    0.824173|    0.019567|
|        5416|   -6.328632|   -8.211497|    0.824172|    0.019567|
|        5417|   -6.326359|   -8.207842|    0.824172|    0.019567|
|        5418|   -6.324125|   -8.204070|    0.824172|    0.019567|
|        5419|   -6.321939|   -8.200205|    0.824172|    0.019567|
|        5420|   -6.319813|   -8.196270|    0.824172|    0.019567|
|        5421|   -6.317758|   -8.192288|    0.824172|    0.019567|
|        5422|   -6.315784|   -8.188277|    0.824172|    0.019567|
|        5423|   -6.313903|   -8.184254|    0.824172|    0.019567|
|        5424|   -6.312128|   -8.180234|    0.824171|    0.019567|
|        5425|   -6.310470|   -8.176231|    0.824171|    0.019567|
|        5426|   -6.308943|   -8.172254|    0.824171|    0.019567|
|        5427|   -6.307560|   -8.168313|    0.824171|    0.019567|
|        5428|   -6.306333|   -8.164415|    0.824171|    0.019567|
|        5429|   -6.305277|   -8.160567|    0.824171|    0.019567|
|        5430|   -6.304404|   -8.156774|    0.824170|    0.019567|
|        5431|   -6.303728|   -8.153040|    0.824170|    0.019567|
|        5432|   -6.303262|   -8.149368|    0.824170|    0.019567|
|        5433|   -6.303018|   -8.145761|    0.824170|    0.019567|
|        5434|   -6.303011|   -8.142220|    0.824170|    0.019567|
|        5435|   -6.303251|   -8.138748|    0.824170|    0.019567|
|        5436|   -6.303750|   -8.135346|    0.824169|    0.019567|
|        5437|   -6.304518|   -8.132015|    0.824169|    0.019567|
|        5438|   -6.305565|   -8.128755|    0.824169|    0.019567|
|        5439|   -6.306898|   -8.125568|    0.824169|    0.019567|
|        5440|   -6.308525|   -8.122453|    0.824169|    0.019567|
|        5441|   -6.310450|   -8.119413|    0.824168|    0.019567|
|        5442|   -6.312675|   -8.116446|    0.824168|    0.019567|
|        5443|   -6.315203|   -8.113554|    0.824168|    0.019567|
|        5444|   -6.318030|   -8.110737|    0.824168|    0.019567|
|        5445|   -6.321153|   -8.107994|    0.824167|    0.019567|
|        5446|   -6.324564|   -8.105326|    0.824167|    0.019567|
|        5447|   -6.328254|   -8.102733|    0.824167|    0.019567|
|        5448|   -6.332208|   -8.100214|    0.824167|    0.019567|
|        5449|   -6.336409|   -8.097770|    0.824166|    0.019567|
|        5450|   -6.340838|   -8.095400|    0.824166|    0.019568|
|        5451|   -6.345469|   -8.093104|    0.824166|    0.019568|
|        5452|   -6.350274|   -8.090881|    0.824166|    0.019568|
|        5453|   -6.355222|   -8.088730|    0.824165|    0.019568|
|        5454|   -6.360276|   -8.086653|    0.824165|    0.019568|
|        5455|   -6.365399|   -8.084647|    0.824165|    0.019568|
|        5456|   -6.370546|   -8.082712|    0.824164|    0.019568|
|        5457|   -6.375674|   -8.080847|    0.824164|    0.019568|
|        5458|   -6.380734|   -8.079053|    0.824164|    0.019568|
|        5459|   -6.385679|   -8.077328|    0.824164|    0.019568|
|        5460|   -6.390459|   -8.075671|    0.824163|    0.019568|
|        5461|   -6.395027|   -8.074082|    0.824163|    0.019568|
|        5462|   -6.399334|   -8.072559|    0.824163|    0.019568|
|        5463|   -6.403337|   -8.071103|    0.824162|    0.019568|
|        5464|   -6.406997|   -8.069711|    0.824162|    0.019568|
|        5465|   -6.410280|   -8.068383|    0.824162|    0.019569|
|        5466|   -6.413157|   -8.067116|    0.824161|    0.019569|
|        5467|   -6.415608|   -8.065911|    0.824161|    0.019569|
|        5468|   -6.417620|   -8.064764|    0.824161|    0.019569|
|        5469|   -6.419190|   -8.063674|    0.824160|    0.019569|
|        5470|   -6.420322|   -8.062638|    0.824160|    0.019569|
|        5471|   -6.421027|   -8.061654|    0.824159|    0.019569|
|        5472|   -6.421326|   -8.060720|    0.824159|    0.019569|
|        5473|   -6.421246|   -8.059832|    0.824159|    0.019569|
|        5474|   -6.420819|   -8.058986|    0.824158|    0.019569|
|        5475|   -6.420082|   -8.058180|    0.824158|    0.019569|
|        5476|   -6.419076|   -8.057409|    0.824158|    0.019569|
|        5477|   -6.417845|   -8.056669|    0.824157|    0.019569|
|        5478|   -6.416431|   -8.055957|    0.824157|    0.019569|
|        5479|   -6.414879|   -8.055267|    0.824157|    0.019569|
|        5480|   -6.413234|   -8.054596|    0.824156|    0.019569|
|        5481|   -6.411537|   -8.053938|    0.824156|    0.019569|
|        5482|   -6.409829|   -8.053289|    0.824155|    0.019569|
|        5483|   -6.408146|   -8.052644|    0.824155|    0.019569|
|        5484|   -6.406524|   -8.052000|    0.824155|    0.019569|
|        5485|   -6.404995|   -8.051350|    0.824154|    0.019569|
|        5486|   -6.403587|   -8.050692|    0.824154|    0.019569|
|        5487|   -6.402326|   -8.050020|    0.824154|    0.019569|
|        5488|   -6.401234|   -8.049332|    0.824153|    0.019569|
|        5489|   -6.400331|   -8.048623|    0.824153|    0.019569|
|        5490|   -6.399633|   -8.047890|    0.824153|    0.019569|
|        5491|   -6.399155|   -8.047131|    0.824152|    0.019569|
|        5492|   -6.398907|   -8.046341|    0.824152|    0.019569|
|        5493|   -6.398900|   -8.045520|    0.824152|    0.019569|
|        5494|   -6.399139|   -8.044666|    0.824152|    0.019569|
|        5495|   -6.399630|   -8.043776|    0.824151|    0.019569|
|        5496|   -6.400376|   -8.042849|    0.824151|    0.019569|
|        5497|   -6.401379|   -8.041885|    0.824151|    0.019569|
|        5498|   -6.402640|   -8.040882|    0.824150|    0.019569|
|        5499|   -6.404156|   -8.039841|    0.824151|    0.019554|
+-----------------------------------------------------------------------+
|Fixed CL Mode (Finite Difference)       |Value                         |
+-----------------------------------------------------------------------+
|Delta CL / Delta AoA                    |0.149905                      |
|Delta CD / Delta CL                     |0.0855512                     |
|Delta CMz / Delta CL                    |-0.00525904                   |
+-----------------------------------------------------------------------+
Writing Flow Meta-Data file: flow.meta

----------------------------- Solver Exit -------------------------------

Maximum number of iterations reached (ITER = 5500) before convergence.
+-----------------------------------------------------------------------+
|      Convergence Field     |     Value    |   Criterion  |  Converged |
+-----------------------------------------------------------------------+
|                    rms[Rho]|      -6.40416|         < -12|          No|
+-----------------------------------------------------------------------+
-------------------------------------------------------------------------

--------------------------- Finalizing Solver ---------------------------
Deleted CNumerics container.
Deleted CIntegration container.
Deleted CSolver container.
Deleted CIteration container.
Deleted CInterface container.
Deleted CGeometry container.
Deleted CFreeFormDefBox class.
Deleted CSurfaceMovement class.
Deleted CVolumetricMovement class.
Deleted CConfig container.
Deleted nInst container.
Deleted COutput class.
-------------------------------------------------------------------------

------------------------- Exit Success (SU2_CFD) ------------------------


-------------------------------------------------------------------------
|    ___ _   _ ___                                                      |
|   / __| | | |_  )   Release 8.0.0 "Harrier"                           |
|   \__ \ |_| |/ /                                                      |
|   |___/\___//___|   Suite (Solution Exporting Code)                   |
|                                                                       |
-------------------------------------------------------------------------
| SU2 Project Website: https://su2code.github.io                        |
|                                                                       |
| The SU2 Project is maintained by the SU2 Foundation                   |
| (http://su2foundation.org)                                            |
-------------------------------------------------------------------------
| Copyright 2012-2023, SU2 Contributors                                 |
|                                                                       |
| SU2 is free software; you can redistribute it and/or                  |
| modify it under the terms of the GNU Lesser General Public            |
| License as published by the Free Software Foundation; either          |
| version 2.1 of the License, or (at your option) any later version.    |
|                                                                       |
| SU2 is distributed in the hope that it will be useful,                |
| but WITHOUT ANY WARRANTY; without even the implied warranty of        |
| MERCHANTABILITY or FITNESS FOR A PARTICULAR PURPOSE. See the GNU      |
| Lesser General Public License for more details.                       |
|                                                                       |
| You should have received a copy of the GNU Lesser General Public      |
| License along with SU2. If not, see <http://www.gnu.org/licenses/>.   |
-------------------------------------------------------------------------

----------------- Physical Case Definition ( Zone 0 ) -------------------
Input mesh file name: mesh_RAE2822_turb_deform.su2

-------------------- Output Information ( Zone 0 ) ----------------------
The tabular file format is CSV (.csv).
Flow variables file name: flow.

------------- Config File Boundary Information ( Zone 0 ) ---------------
+-----------------------------------------------------------------------+
|                        Marker Type|                        Marker Name|
+-----------------------------------------------------------------------+
|                          Far-field|                           FARFIELD|
+-----------------------------------------------------------------------+
|                     Heat flux wall|                            AIRFOIL|
+-----------------------------------------------------------------------+
Two dimensional problem.
13937 grid points before partitioning.
22842 volume elements before partitioning.
2 surface markers.
192 boundary elements in index 0 (Marker = AIRFOIL).
40 boundary elements in index 1 (Marker = FARFIELD).
Executing the partitioning functions.
Building the graph adjacency structure.
Calling ParMETIS... graph partitioning complete (831 edge cuts).
Distributing ParMETIS coloring.
Rebalancing vertices.
Rebalancing volume element connectivity.
Rebalancing markers and surface elements.
14875 vertices including ghost points. 
23674 interior elements including halo cells. 
18780 triangles.
4894 quadrilaterals.
Establishing MPI communication patterns.
Identify vertices.
Storing a mapping from global to local point index.

------------------------- Solution Postprocessing -----------------------
Reading and storing the solution from restart_flow.
Volume output fields: COORDINATES, SOLUTION
  Info: Ignoring the following screen output fields:
  RMS_DENSITY, RMS_NU_TILDE, LIFT, DRAG
Screen output fields: INNER_ITER
  Info: Ignoring the following history output groups:
  RMS_RES, AERO_COEFF
History output group(s): ITER
Warning: No (valid) fields chosen for convergence monitoring. Convergence monitoring inactive.
Warning: No (valid) fields chosen for time convergence monitoring. Time convergence monitoring inactive.
|Paraview                           |flow.vtu                           |
|Paraview surface                   |surface_flow.vtu                   |
|CSV file                           |surface_flow.csv                   |

------------------------- Finalize Solver -------------------------
Deleted CGeometry container.
Deleted CSolver class.
Deleted CConfig container.
Deleted COutput class.

Completed in 0.020744 seconds on 6 cores.

------------------------- Exit Success (SU2_SOL) ------------------------

