
-------------------------------------------------------------------------
|    ___ _   _ ___                                                      |
|   / __| | | |_  )   Release 8.0.0 "Harrier"                           |
|   \__ \ |_| |/ /                                                      |
|   |___/\___//___|   Suite (Computational Fluid Dynamics Code)         |
|                                                                       |
-------------------------------------------------------------------------
| SU2 Project Website: https://su2code.github.io                        |
|                                                                       |
| The SU2 Project is maintained by the SU2 Foundation                   |
| (http://su2foundation.org)                                            |
-------------------------------------------------------------------------
| Copyright 2012-2023, SU2 Contributors                                 |
|                                                                       |
| SU2 is free software; you can redistribute it and/or                  |
| modify it under the terms of the GNU Lesser General Public            |
| License as published by the Free Software Foundation; either          |
| version 2.1 of the License, or (at your option) any later version.    |
|                                                                       |
| SU2 is distributed in the hope that it will be useful,                |
| but WITHOUT ANY WARRANTY; without even the implied warranty of        |
| MERCHANTABILITY or FITNESS FOR A PARTICULAR PURPOSE. See the GNU      |
| Lesser General Public License for more details.                       |
|                                                                       |
| You should have received a copy of the GNU Lesser General Public      |
| License along with SU2. If not, see <http://www.gnu.org/licenses/>.   |
-------------------------------------------------------------------------

Parsing config file for zone 0

----------------- Physical Case Definition ( Zone 0 ) -------------------
Compressible RANS equations.
Turbulence model: Spalart-Allmaras-noft2
Hybrid RANS/LES: No Hybrid RANS/LES
Mach number: 0.734.
Angle of attack (AoA): 2.31 deg, and angle of sideslip (AoS): 0 deg.
Reynolds number: 6.5e+06. Reference length 1.
Fixed CL mode, target value: 0.824.
Reading and writing binary SU2 native restart files.
Read flow solution from: solution_flow.dat.
Dimensional simulation.
The reference area is 1 m^2.
The semi-span will be computed using the max y(3D) value.
The reference length is 1 m.
Reference origin for moment evaluation is (0.25, 0, 0).
Surface(s) where the force coefficients are evaluated: AIRFOIL.

Surface(s) plotted in the output file: AIRFOIL.
Surface(s) affected by the design variables: AIRFOIL.
Input mesh file name: mesh_RAE2822_turb_deform.su2

--------------- Space Numerical Integration ( Zone 0 ) ------------------
Jameson-Schmidt-Turkel scheme (2nd order in space) for the flow inviscid terms.
JST viscous coefficients (2nd & 4th): 0.5, 0.02.
The method includes a grid stretching correction (p = 0.3).
Scalar upwind solver for the turbulence model.
First order integration in space.
Average of gradients with correction (viscous flow terms).
Average of gradients with correction (viscous turbulence terms).
Gradient for viscous and source terms: inverse-distance weighted Least-Squares.

--------------- Time Numerical Integration  ( Zone 0 ) ------------------
Local time stepping (steady state simulation).
Euler implicit method for the flow equations.
FGMRES is used for solving the linear system.
Using a ILU(0) preconditioning.
Convergence criteria of the linear solver: 1e-06.
Max number of linear iterations: 10.
No CFL adaptation.
Courant-Friedrichs-Lewy number:       10
Euler implicit time integration for the turbulence model.

------------------ Convergence Criteria  ( Zone 0 ) ---------------------
Maximum number of solver subiterations: 5500.
Begin convergence monitoring at iteration 10.
Residual minimum value: 1e-12.
Cauchy series min. value: 1e-06.
Number of Cauchy elements: 100.
Begin windowed time average at iteration 0.

-------------------- Output Information ( Zone 0 ) ----------------------
File writing frequency: 
+------------------------------------+
|                     File| Frequency|
+------------------------------------+
|                  RESTART|     10000|
|                 PARAVIEW|     10000|
|         SURFACE_PARAVIEW|     10000|
|              SURFACE_CSV|     10000|
+------------------------------------+
Writing the convergence history file every 1 inner iterations.
Writing the screen convergence history every 1 inner iterations.
The tabular file format is CSV (.csv).
Convergence history file name: history_direct.
Forces breakdown file name: forces_breakdown.dat.
Surface file name: surface_flow.
Volume file name: flow.
Restart file name: restart_flow.dat.

------------- Config File Boundary Information ( Zone 0 ) ---------------
+-----------------------------------------------------------------------+
|                        Marker Type|                        Marker Name|
+-----------------------------------------------------------------------+
|                          Far-field|                           FARFIELD|
+-----------------------------------------------------------------------+
|                     Heat flux wall|                            AIRFOIL|
+-----------------------------------------------------------------------+

-------------------- Output Preprocessing ( Zone 0 ) --------------------

WARNING: SURFACE_PRESSURE_DROP can only be computed for at least 2 surfaces (outlet, inlet, ...)

Screen output fields: INNER_ITER, RMS_DENSITY, RMS_NU_TILDE, LIFT, DRAG
History output group(s): ITER, RMS_RES, AERO_COEFF
Convergence field(s): RMS_DENSITY
Warning: No (valid) fields chosen for time convergence monitoring. Time convergence monitoring inactive.
Volume output fields: COORDINATES, SOLUTION, PRIMITIVE

------------------- Geometry Preprocessing ( Zone 0 ) -------------------
Two dimensional problem.
13937 grid points before partitioning.
22842 volume elements before partitioning.
2 surface markers.
192 boundary elements in index 0 (Marker = AIRFOIL).
40 boundary elements in index 1 (Marker = FARFIELD).
Executing the partitioning functions.
Building the graph adjacency structure.
Calling ParMETIS... graph partitioning complete (831 edge cuts).
Distributing ParMETIS coloring.
Rebalancing vertices.
Rebalancing volume element connectivity.
Rebalancing markers and surface elements.
14875 vertices including ghost points. 
23674 interior elements including halo cells. 
18780 triangles.
4894 quadrilaterals.
Establishing MPI communication patterns.
Setting point connectivity.
Renumbering points (Reverse Cuthill McKee Ordering).
Recomputing point connectivity.
Setting element connectivity.
Checking the numerical grid orientation.
All volume elements are correctly orientend.
All surface elements are correctly orientend.
Identifying edges and vertices.
Setting the control volume structure.
Area of the computational grid: 32209.9.
Searching for the closest normal neighbors to the surfaces.
Storing a mapping from global to local point index.
Compute the surface curvature.
Max K: 188.532. Mean K: 8.08496. Standard deviation K: 25.4476.
Checking for periodicity.
Computing mesh quality statistics for the dual control volumes.
+--------------------------------------------------------------+
|           Mesh Quality Metric|        Minimum|        Maximum|
+--------------------------------------------------------------+
|    Orthogonality Angle (deg.)|        74.8763|        89.9999|
|     CV Face Area Aspect Ratio|        1.00517|        3358.36|
|           CV Sub-Volume Ratio|        1.00047|        1217.95|
+--------------------------------------------------------------+
Finding max control volume width.
Communicating number of neighbors.
Wetted area = 2.02145 m.
Area projection in the x-plane = 0.126183 m, y-plane = 0.995873 m.
Max. coordinate in the x-direction = 1 m, y-direction = 0.0619892 m.
Min. coordinate in the x-direction = 0 m, y-direction = -0.0607914 m.
Computing wall distances.

-------------------- Solver Preprocessing ( Zone 0 ) --------------------
WARNING: AoA in the solution file (2.78037 deg.) +
         AoA offset in mesh file (0 deg.) = 2.78037 deg.
WARNING: SU2 will use the dCD/dCL provided in the direct solution file: 0.0182983.
WARNING: SU2 will use the dCMz/dCL provided in the direct solution file: 0.00805807.
Viscous flow: Computing pressure using the ideal gas law
based on the free-stream temperature and a density computed
from the Reynolds number.
Force coefficients computed using free-stream values.

-- Models:
+------------------------------------------------------------------------------+
|          Viscosity Model|        Conductivity Model|              Fluid Model|
+------------------------------------------------------------------------------+
|               SUTHERLAND|          CONSTANT_PRANDTL|             STANDARD_AIR|
+------------------------------------------------------------------------------+
-- Fluid properties:
+------------------------------------------------------------------------------+
|                  Name|    Dim. value|    Ref. value|      Unit|Non-dim. value|
+------------------------------------------------------------------------------+
|        Ref. Viscosity|     1.716e-05|             1|   N.s/m^2|     1.716e-05|
|      Sutherland Temp.|        273.15|             1|         K|        273.15|
|     Sutherland Const.|         110.4|             1|         K|         110.4|
+------------------------------------------------------------------------------+
|        Prandtl (Lam.)|             -|             -|         -|          0.71|
|       Prandtl (Turb.)|             -|             -|         -|           0.9|
+------------------------------------------------------------------------------+
|          Gas Constant|       287.058|             1|  N.m/kg.K|       287.058|
|      Spec. Heat Ratio|             -|             -|         -|           1.4|
+------------------------------------------------------------------------------+
-- Initial and free-stream conditions:
+------------------------------------------------------------------------------+
|                  Name|    Dim. value|    Ref. value|      Unit|Non-dim. value|
+------------------------------------------------------------------------------+
|       Static Pressure|         38515|             1|        Pa|         38515|
|               Density|      0.465631|             1|    kg/m^3|      0.465631|
|           Temperature|        288.15|             1|         K|        288.15|
|          Total Energy|        237984|             1|   m^2/s^2|        237984|
|            Velocity-X|       249.484|             1|       m/s|       249.484|
|            Velocity-Y|       12.1161|             1|       m/s|       12.1161|
|    Velocity Magnitude|       249.778|             1|       m/s|       249.778|
+------------------------------------------------------------------------------+
|             Viscosity|    1.7893e-05|             1|   N.s/m^2|    1.7893e-05|
|          Conductivity|             -|             1|   W/m^2.K|             -|
|     Turb. Kin. Energy|       233.959|             1|   m^2/s^2|       233.959|
|     Spec. Dissipation|        608834|             1|       1/s|        608834|
+------------------------------------------------------------------------------+
|           Mach Number|             -|             -|         -|         0.734|
|       Reynolds Number|             -|             -|         -|       6.5e+06|
+------------------------------------------------------------------------------+
Initialize Jacobian structure (Navier-Stokes). MG level: 0.
Initialize Jacobian structure (SA model).

------------------- Numerics Preprocessing ( Zone 0 ) -------------------

----------------- Integration Preprocessing ( Zone 0 ) ------------------

------------------- Iteration Preprocessing ( Zone 0 ) ------------------
Euler/Navier-Stokes/RANS fluid iteration.

------------------------------ Begin Solver -----------------------------

Simulation Run using the Single-zone Driver
WARNING: SU2 was not compiled for an AVX-capable architecture. Performance could be better,
         see https://su2code.github.io/docs_v7/Build-SU2-Linux-MacOS/#compiler-optimizations
+----------------------------------------------------------------+
|  Inner_Iter|    rms[Rho]|     rms[nu]|          CL|          CD|
+----------------------------------------------------------------+
|           0|   -5.431599|   -6.592198|    0.823977|    0.012011|
|           1|   -5.487845|   -6.680134|    0.823961|    0.012008|
|           2|   -5.544567|   -6.782335|    0.823950|    0.012007|
|           3|   -5.582910|   -6.896057|    0.823945|    0.012006|
|           4|   -5.608022|   -7.019762|    0.823944|    0.012006|
|           5|   -5.626164|   -7.143513|    0.823944|    0.012006|
|           6|   -5.639117|   -7.237059|    0.823945|    0.012006|
|           7|   -5.646947|   -7.268583|    0.823945|    0.012005|
|           8|   -5.649575|   -7.254963|    0.823945|    0.012004|
|           9|   -5.646865|   -7.234498|    0.823944|    0.012002|
|          10|   -5.638955|   -7.224487|    0.823944|    0.012001|
|          11|   -5.626835|   -7.224778|    0.823943|    0.011999|
|          12|   -5.612341|   -7.227615|    0.823944|    0.011997|
|          13|   -5.597496|   -7.223995|    0.823945|    0.011995|
|          14|   -5.583816|   -7.209354|    0.823946|    0.011994|
|          15|   -5.572025|   -7.185854|    0.823948|    0.011992|
|          16|   -5.562161|   -7.159183|    0.823950|    0.011991|
|          17|   -5.553891|   -7.134275|    0.823953|    0.011990|
|          18|   -5.546829|   -7.113625|    0.823956|    0.011988|
|          19|   -5.540731|   -7.097578|    0.823959|    0.011987|
|          20|   -5.535541|   -7.085123|    0.823962|    0.011986|
|          21|   -5.531288|   -7.074639|    0.823964|    0.011985|
|          22|   -5.527970|   -7.064536|    0.823967|    0.011985|
|          23|   -5.525469|   -7.053782|    0.823968|    0.011984|
|          24|   -5.523555|   -7.042185|    0.823970|    0.011983|
|          25|   -5.521948|   -7.030348|    0.823970|    0.011983|
|          26|   -5.520404|   -7.019346|    0.823970|    0.011982|
|          27|   -5.518764|   -7.010346|    0.823969|    0.011982|
|          28|   -5.516973|   -7.004311|    0.823968|    0.011981|
|          29|   -5.515059|   -7.001866|    0.823966|    0.011981|
|          30|   -5.513096|   -7.003263|    0.823964|    0.011981|
|          31|   -5.511184|   -7.008409|    0.823962|    0.011980|
|          32|   -5.509428|   -7.016902|    0.823960|    0.011980|
|          33|   -5.507934|   -7.028079|    0.823957|    0.011980|
|          34|   -5.506805|   -7.041056|    0.823955|    0.011979|
|          35|   -5.506126|   -7.054787|    0.823953|    0.011979|
|          36|   -5.505956|   -7.068149|    0.823951|    0.011979|
|          37|   -5.506315|   -7.080074|    0.823950|    0.011978|
|          38|   -5.507177|   -7.089694|    0.823949|    0.011978|
|          39|   -5.508477|   -7.096485|    0.823949|    0.011977|
|          40|   -5.510125|   -7.100347|    0.823949|    0.011977|
|          41|   -5.512016|   -7.101590|    0.823950|    0.011976|
|          42|   -5.514055|   -7.100836|    0.823951|    0.011975|
|          43|   -5.516168|   -7.098871|    0.823952|    0.011975|
|          44|   -5.518310|   -7.096508|    0.823954|    0.011974|
|          45|   -5.520467|   -7.094480|    0.823956|    0.011974|
|          46|   -5.522650|   -7.093377|    0.823959|    0.011974|
|          47|   -5.524887|   -7.093623|    0.823962|    0.011973|
|          48|   -5.527214|   -7.095473|    0.823965|    0.011973|
|          49|   -5.529665|   -7.099017|    0.823968|    0.011973|
|          50|   -5.532264|   -7.104196|    0.823972|    0.011973|
|          51|   -5.535023|   -7.110818|    0.823975|    0.011973|
|          52|   -5.537938|   -7.118575|    0.823978|    0.011973|
|          53|   -5.540990|   -7.127068|    0.823982|    0.011974|
|          54|   -5.544147|   -7.135837|    0.823985|    0.011974|
|          55|   -5.547367|   -7.144404|    0.823987|    0.011975|
|          56|   -5.550601|   -7.152320|    0.823990|    0.011975|
|          57|   -5.553797|   -7.159215|    0.823992|    0.011976|
|          58|   -5.556905|   -7.164837|    0.823995|    0.011976|
|          59|   -5.559874|   -7.169081|    0.823996|    0.011977|
|          60|   -5.562667|   -7.171987|    0.823998|    0.011978|
|          61|   -5.565249|   -7.173710|    0.823999|    0.011979|
|          62|   -5.567600|   -7.174485|    0.824000|    0.011979|
|          63|   -5.569708|   -7.174576|    0.824001|    0.011980|
|          64|   -5.571573|   -7.174232|    0.824001|    0.011981|
|          65|   -5.573206|   -7.173661|    0.824002|    0.011982|
|          66|   -5.574626|   -7.173013|    0.824002|    0.011982|
|          67|   -5.575861|   -7.172379|    0.824002|    0.011983|
|          68|   -5.576938|   -7.171798|    0.824002|    0.011984|
|          69|   -5.577889|   -7.171276|    0.824002|    0.011985|
|          70|   -5.578741|   -7.170804|    0.824002|    0.011986|
|          71|   -5.579516|   -7.170371|    0.824001|    0.011987|
|          72|   -5.580226|   -7.169984|    0.824001|    0.011987|
|          73|   -5.580876|   -7.169668|    0.824001|    0.011988|
|          74|   -5.581464|   -7.169470|    0.824000|    0.011989|
|          75|   -5.581976|   -7.169451|    0.824000|    0.011990|
|          76|   -5.582397|   -7.169683|    0.823999|    0.011991|
|          77|   -5.582705|   -7.170234|    0.823999|    0.011992|
|          78|   -5.582879|   -7.171163|    0.823998|    0.011993|
|          79|   -5.582900|   -7.172516|    0.823997|    0.011993|
|          80|   -5.582749|   -7.174322|    0.823997|    0.011994|
|          81|   -5.582415|   -7.176593|    0.823996|    0.011995|
|          82|   -5.581889|   -7.179324|    0.823995|    0.011996|
|          83|   -5.581171|   -7.182503|    0.823994|    0.011997|
|          84|   -5.580265|   -7.186110|    0.823994|    0.011997|
|          85|   -5.579182|   -7.190122|    0.823993|    0.011998|
|          86|   -5.577941|   -7.194515|    0.823992|    0.011999|
|          87|   -5.576564|   -7.199267|    0.823991|    0.011999|
|          88|   -5.575077|   -7.204353|    0.823991|    0.012000|
|          89|   -5.573509|   -7.209749|    0.823990|    0.012001|
|          90|   -5.571889|   -7.215432|    0.823989|    0.012001|
|          91|   -5.570246|   -7.221372|    0.823989|    0.012002|
|          92|   -5.568606|   -7.227539|    0.823988|    0.012003|
|          93|   -5.566991|   -7.233899|    0.823988|    0.012003|
|          94|   -5.565418|   -7.240412|    0.823987|    0.012004|
|          95|   -5.563900|   -7.247038|    0.823987|    0.012005|
|          96|   -5.562446|   -7.253734|    0.823986|    0.012005|
|          97|   -5.561061|   -7.260457|    0.823986|    0.012006|
|          98|   -5.559747|   -7.267160|    0.823986|    0.012006|
|          99|   -5.558501|   -7.273801|    0.823985|    0.012007|
|         100|   -5.557321|   -7.280336|    0.823985|    0.012008|
|         101|   -5.556198|   -7.286723|    0.823985|    0.012009|
+-----------------------------------------------------------------------+
|Fixed CL Mode                           |Value                         |
+-----------------------------------------------------------------------+
|Current CL                              |0.823985                      |
|Target CL                               |0.824                         |
|Previous AOA                            |2.78037                       |
|Changed AoA by                          |7.52307e-05                   |
+-----------------------------------------------------------------------+
+----------------------------------------------------------------+
|  Inner_Iter|    rms[Rho]|     rms[nu]|          CL|          CD|
+----------------------------------------------------------------+
|         102|   -4.316075|   -7.291683|    0.823984|    0.012010|
|         103|   -4.694623|   -7.298261|    0.823984|    0.012010|
|         104|   -4.923996|   -7.304150|    0.823983|    0.012011|
|         105|   -4.995137|   -7.309672|    0.823982|    0.012011|
|         106|   -5.044019|   -7.314855|    0.823982|    0.012012|
|         107|   -5.106037|   -7.319697|    0.823981|    0.012012|
|         108|   -5.179447|   -7.324191|    0.823980|    0.012012|
|         109|   -5.251751|   -7.328339|    0.823979|    0.012013|
|         110|   -5.310257|   -7.332149|    0.823978|    0.012013|
|         111|   -5.351058|   -7.335634|    0.823977|    0.012013|
|         112|   -5.377211|   -7.338815|    0.823975|    0.012013|
|         113|   -5.392189|   -7.341716|    0.823974|    0.012014|
|         114|   -5.398816|   -7.344364|    0.823973|    0.012014|
|         115|   -5.400768|   -7.346790|    0.823971|    0.012014|
|         116|   -5.402028|   -7.349024|    0.823970|    0.012014|
|         117|   -5.405228|   -7.351098|    0.823968|    0.012014|
|         118|   -5.410895|   -7.353047|    0.823967|    0.012014|
|         119|   -5.417923|   -7.354904|    0.823966|    0.012014|
|         120|   -5.424668|   -7.356706|    0.823964|    0.012014|
|         121|   -5.429990|   -7.358488|    0.823963|    0.012014|
|         122|   -5.433689|   -7.360287|    0.823961|    0.012013|
|         123|   -5.436229|   -7.362138|    0.823960|    0.012013|
|         124|   -5.438166|   -7.364073|    0.823959|    0.012013|
|         125|   -5.439781|   -7.366122|    0.823958|    0.012013|
|         126|   -5.441051|   -7.368311|    0.823956|    0.012013|
|         127|   -5.441815|   -7.370667|    0.823955|    0.012012|
|         128|   -5.441942|   -7.373212|    0.823954|    0.012012|
|         129|   -5.441395|   -7.375969|    0.823953|    0.012012|
|         130|   -5.440229|   -7.378957|    0.823952|    0.012012|
|         131|   -5.438560|   -7.382189|    0.823952|    0.012011|
|         132|   -5.436545|   -7.385678|    0.823951|    0.012011|
|         133|   -5.434373|   -7.389434|    0.823950|    0.012011|
|         134|   -5.432233|   -7.393471|    0.823950|    0.012011|
|         135|   -5.430289|   -7.397795|    0.823949|    0.012010|
|         136|   -5.428649|   -7.402412|    0.823949|    0.012010|
|         137|   -5.427350|   -7.407324|    0.823948|    0.012010|
|         138|   -5.426360|   -7.412533|    0.823948|    0.012010|
|         139|   -5.425597|   -7.418041|    0.823947|    0.012009|
|         140|   -5.424943|   -7.423853|    0.823947|    0.012009|
|         141|   -5.424273|   -7.429960|    0.823947|    0.012009|
|         142|   -5.423480|   -7.436354|    0.823947|    0.012009|
|         143|   -5.422498|   -7.443024|    0.823946|    0.012009|
|         144|   -5.421312|   -7.449961|    0.823946|    0.012008|
|         145|   -5.419957|   -7.457150|    0.823946|    0.012008|
|         146|   -5.418505|   -7.464578|    0.823946|    0.012008|
|         147|   -5.417040|   -7.472229|    0.823946|    0.012008|
|         148|   -5.415636|   -7.480083|    0.823946|    0.012007|
|         149|   -5.414344|   -7.488119|    0.823945|    0.012007|
|         150|   -5.413179|   -7.496311|    0.823945|    0.012007|
|         151|   -5.412129|   -7.504639|    0.823945|    0.012007|
|         152|   -5.411158|   -7.513078|    0.823945|    0.012007|
|         153|   -5.410225|   -7.521600|    0.823946|    0.012006|
|         154|   -5.409290|   -7.530179|    0.823946|    0.012006|
|         155|   -5.408323|   -7.538790|    0.823946|    0.012006|
|         156|   -5.407309|   -7.547401|    0.823946|    0.012006|
|         157|   -5.406249|   -7.555983|    0.823947|    0.012006|
|         158|   -5.405153|   -7.564507|    0.823947|    0.012006|
|         159|   -5.404038|   -7.572944|    0.823947|    0.012005|
|         160|   -5.402919|   -7.581264|    0.823948|    0.012005|
|         161|   -5.401813|   -7.589438|    0.823948|    0.012005|
|         162|   -5.400728|   -7.597441|    0.823949|    0.012005|
|         163|   -5.399669|   -7.605247|    0.823950|    0.012005|
|         164|   -5.398636|   -7.612831|    0.823951|    0.012005|
|         165|   -5.397626|   -7.620171|    0.823952|    0.012005|
|         166|   -5.396635|   -7.627245|    0.823952|    0.012004|
|         167|   -5.395661|   -7.634032|    0.823953|    0.012004|
|         168|   -5.394699|   -7.640511|    0.823954|    0.012004|
|         169|   -5.393750|   -7.646665|    0.823955|    0.012004|
|         170|   -5.392816|   -7.652476|    0.823956|    0.012004|
|         171|   -5.391898|   -7.657929|    0.823958|    0.012004|
|         172|   -5.391003|   -7.663013|    0.823959|    0.012004|
|         173|   -5.390138|   -7.667716|    0.823960|    0.012004|
|         174|   -5.389310|   -7.672031|    0.823961|    0.012004|
|         175|   -5.388531|   -7.675957|    0.823962|    0.012004|
|         176|   -5.387811|   -7.679495|    0.823963|    0.012004|
|         177|   -5.387165|   -7.682651|    0.823964|    0.012004|
|         178|   -5.386608|   -7.685439|    0.823965|    0.012005|
|         179|   -5.386157|   -7.687875|    0.823966|    0.012005|
|         180|   -5.385832|   -7.689982|    0.823967|    0.012005|
|         181|   -5.385653|   -7.691787|    0.823968|    0.012005|
|         182|   -5.385643|   -7.693322|    0.823968|    0.012005|
|         183|   -5.385824|   -7.694622|    0.823969|    0.012005|
|         184|   -5.386221|   -7.695726|    0.823970|    0.012005|
|         185|   -5.386859|   -7.696674|    0.823970|    0.012006|
|         186|   -5.387763|   -7.697506|    0.823971|    0.012006|
|         187|   -5.388959|   -7.698263|    0.823971|    0.012006|
|         188|   -5.390472|   -7.698984|    0.823972|    0.012006|
|         189|   -5.392327|   -7.699707|    0.823972|    0.012006|
|         190|   -5.394548|   -7.700465|    0.823972|    0.012007|
|         191|   -5.397156|   -7.701290|    0.823972|    0.012007|
|         192|   -5.400169|   -7.702207|    0.823972|    0.012007|
|         193|   -5.403603|   -7.703240|    0.823972|    0.012007|
|         194|   -5.407470|   -7.704406|    0.823972|    0.012008|
|         195|   -5.411776|   -7.705719|    0.823972|    0.012008|
|         196|   -5.416520|   -7.707188|    0.823972|    0.012008|
|         197|   -5.421695|   -7.708816|    0.823972|    0.012008|
|         198|   -5.427286|   -7.710605|    0.823972|    0.012009|
|         199|   -5.433270|   -7.712552|    0.823972|    0.012009|
|         200|   -5.439611|   -7.714651|    0.823972|    0.012009|
|         201|   -5.446265|   -7.716892|    0.823971|    0.012011|
+-----------------------------------------------------------------------+
|Fixed CL Mode                           |Value                         |
+-----------------------------------------------------------------------+
|Current CL                              |0.823971                      |
|Target CL                               |0.824                         |
|Previous AOA                            |2.78044                       |
|Changed AoA by                          |0.000141911                   |
+-----------------------------------------------------------------------+
+----------------------------------------------------------------+
|  Inner_Iter|    rms[Rho]|     rms[nu]|          CL|          CD|
+----------------------------------------------------------------+
|         202|   -4.041019|   -7.689130|    0.823971|    0.012012|
|         203|   -4.423381|   -7.705702|    0.823971|    0.012012|
|         204|   -4.661209|   -7.712481|    0.823971|    0.012012|
|         205|   -4.736040|   -7.717420|    0.823970|    0.012012|
|         206|   -4.787427|   -7.721788|    0.823970|    0.012013|
|         207|   -4.854264|   -7.725882|    0.823970|    0.012013|
|         208|   -4.936123|   -7.729791|    0.823969|    0.012013|
|         209|   -5.020330|   -7.733557|    0.823969|    0.012013|
|         210|   -5.091712|   -7.737195|    0.823969|    0.012014|
|         211|   -5.143423|   -7.740684|    0.823969|    0.012014|
|         212|   -5.177551|   -7.744013|    0.823968|    0.012014|
|         213|   -5.197812|   -7.747196|    0.823968|    0.012015|
|         214|   -5.207640|   -7.750272|    0.823968|    0.012015|
|         215|   -5.211946|   -7.753272|    0.823967|    0.012015|
|         216|   -5.216257|   -7.756212|    0.823967|    0.012015|
|         217|   -5.224313|   -7.759088|    0.823967|    0.012016|
|         218|   -5.236985|   -7.761897|    0.823967|    0.012016|
|         219|   -5.252769|   -7.764651|    0.823967|    0.012016|
|         220|   -5.269164|   -7.767362|    0.823966|    0.012016|
|         221|   -5.284207|   -7.770046|    0.823966|    0.012016|
|         222|   -5.297384|   -7.772708|    0.823966|    0.012017|
|         223|   -5.309395|   -7.775342|    0.823966|    0.012017|
|         224|   -5.321232|   -7.777931|    0.823965|    0.012017|
|         225|   -5.333404|   -7.780473|    0.823965|    0.012017|
|         226|   -5.345755|   -7.782963|    0.823965|    0.012017|
|         227|   -5.357713|   -7.785401|    0.823965|    0.012017|
|         228|   -5.368646|   -7.787793|    0.823965|    0.012018|
|         229|   -5.378094|   -7.790137|    0.823965|    0.012018|
|         230|   -5.385861|   -7.792426|    0.823964|    0.012018|
|         231|   -5.392022|   -7.794670|    0.823964|    0.012018|
|         232|   -5.396909|   -7.796880|    0.823964|    0.012018|
|         233|   -5.401066|   -7.799061|    0.823964|    0.012018|
|         234|   -5.405143|   -7.801216|    0.823964|    0.012018|
|         235|   -5.409764|   -7.803343|    0.823964|    0.012018|
|         236|   -5.415407|   -7.805445|    0.823964|    0.012018|
|         237|   -5.422320|   -7.807519|    0.823964|    0.012018|
|         238|   -5.430504|   -7.809561|    0.823964|    0.012018|
|         239|   -5.439728|   -7.811570|    0.823964|    0.012018|
|         240|   -5.449566|   -7.813551|    0.823964|    0.012018|
|         241|   -5.459477|   -7.815508|    0.823964|    0.012018|
|         242|   -5.468909|   -7.817446|    0.823964|    0.012018|
|         243|   -5.477419|   -7.819372|    0.823964|    0.012018|
|         244|   -5.484788|   -7.821297|    0.823964|    0.012018|
|         245|   -5.491072|   -7.823232|    0.823965|    0.012018|
|         246|   -5.496562|   -7.825187|    0.823965|    0.012017|
|         247|   -5.501692|   -7.827170|    0.823965|    0.012017|
|         248|   -5.506906|   -7.829194|    0.823966|    0.012017|
|         249|   -5.512554|   -7.831265|    0.823966|    0.012017|
|         250|   -5.518829|   -7.833395|    0.823967|    0.012017|
|         251|   -5.525755|   -7.835594|    0.823967|    0.012017|
|         252|   -5.533213|   -7.837871|    0.823968|    0.012017|
|         253|   -5.540992|   -7.840235|    0.823968|    0.012016|
|         254|   -5.548848|   -7.842694|    0.823969|    0.012016|
|         255|   -5.556564|   -7.845259|    0.823970|    0.012016|
|         256|   -5.563991|   -7.847944|    0.823970|    0.012016|
|         257|   -5.571068|   -7.850769|    0.823971|    0.012016|
|         258|   -5.577817|   -7.853740|    0.823972|    0.012016|
|         259|   -5.584321|   -7.856866|    0.823973|    0.012015|
|         260|   -5.590691|   -7.860167|    0.823974|    0.012015|
|         261|   -5.597036|   -7.863665|    0.823975|    0.012015|
|         262|   -5.603442|   -7.867381|    0.823976|    0.012015|
|         263|   -5.609962|   -7.871338|    0.823977|    0.012015|
|         264|   -5.616612|   -7.875556|    0.823979|    0.012015|
|         265|   -5.623382|   -7.880058|    0.823980|    0.012014|
|         266|   -5.630242|   -7.884861|    0.823981|    0.012014|
|         267|   -5.637154|   -7.889984|    0.823982|    0.012014|
|         268|   -5.644077|   -7.895441|    0.823984|    0.012014|
|         269|   -5.650972|   -7.901242|    0.823985|    0.012014|
|         270|   -5.657801|   -7.907394|    0.823986|    0.012014|
|         271|   -5.664529|   -7.913897|    0.823988|    0.012013|
|         272|   -5.671115|   -7.920753|    0.823989|    0.012013|
|         273|   -5.677517|   -7.927946|    0.823990|    0.012013|
|         274|   -5.683688|   -7.935455|    0.823992|    0.012013|
|         275|   -5.689577|   -7.943251|    0.823993|    0.012013|
|         276|   -5.695131|   -7.951296|    0.823994|    0.012013|
|         277|   -5.700300|   -7.959542|    0.823995|    0.012013|
|         278|   -5.705039|   -7.967938|    0.823997|    0.012012|
|         279|   -5.709309|   -7.976420|    0.823998|    0.012012|
|         280|   -5.713084|   -7.984910|    0.823999|    0.012012|
|         281|   -5.716351|   -7.993331|    0.824000|    0.012012|
|         282|   -5.719106|   -8.001600|    0.824001|    0.012012|
|         283|   -5.721362|   -8.009637|    0.824002|    0.012012|
|         284|   -5.723142|   -8.017369|    0.824003|    0.012012|
|         285|   -5.724480|   -8.024731|    0.824004|    0.012012|
|         286|   -5.725419|   -8.031673|    0.824005|    0.012011|
|         287|   -5.726009|   -8.038164|    0.824005|    0.012011|
|         288|   -5.726302|   -8.044190|    0.824006|    0.012011|
|         289|   -5.726355|   -8.049764|    0.824006|    0.012011|
|         290|   -5.726224|   -8.054918|    0.824007|    0.012011|
|         291|   -5.725965|   -8.059708|    0.824007|    0.012011|
|         292|   -5.725628|   -8.064212|    0.824008|    0.012011|
|         293|   -5.725262|   -8.068519|    0.824008|    0.012011|
|         294|   -5.724909|   -8.072734|    0.824008|    0.012011|
|         295|   -5.724608|   -8.076966|    0.824009|    0.012011|
|         296|   -5.724391|   -8.081328|    0.824009|    0.012011|
|         297|   -5.724284|   -8.085931|    0.824009|    0.012011|
|         298|   -5.724312|   -8.090879|    0.824009|    0.012011|
|         299|   -5.724491|   -8.096268|    0.824009|    0.012011|
|         300|   -5.724836|   -8.102184|    0.824009|    0.012011|
|         301|   -5.725357|   -8.108698|    0.824009|    0.012010|
+-----------------------------------------------------------------------+
|Fixed CL Mode                           |Value                         |
+-----------------------------------------------------------------------+
|Current CL                              |0.824009                      |
|Target CL                               |0.824                         |
|Previous AOA                            |2.78058                       |
|Changed AoA by                          |-4.37702e-05                  |
+-----------------------------------------------------------------------+
+----------------------------------------------------------------+
|  Inner_Iter|    rms[Rho]|     rms[nu]|          CL|          CD|
+----------------------------------------------------------------+
|         302|   -4.551287|   -8.099561|    0.824009|    0.012010|
|         303|   -4.932716|   -8.115552|    0.824008|    0.012011|
|         304|   -5.171725|   -8.126140|    0.824008|    0.012011|
|         305|   -5.248238|   -8.136332|    0.824008|    0.012011|
|         306|   -5.298141|   -8.146924|    0.824008|    0.012011|
|         307|   -5.359680|   -8.158037|    0.824008|    0.012011|
|         308|   -5.430906|   -8.169606|    0.824007|    0.012011|
|         309|   -5.497726|   -8.181498|    0.824007|    0.012011|
|         310|   -5.546835|   -8.193544|    0.824007|    0.012011|
|         311|   -5.576340|   -8.205536|    0.824007|    0.012011|
|         312|   -5.592194|   -8.217254|    0.824006|    0.012011|
|         313|   -5.599828|   -8.228492|    0.824006|    0.012011|
|         314|   -5.602790|   -8.239053|    0.824006|    0.012011|
|         315|   -5.604335|   -8.248735|    0.824006|    0.012011|
|         316|   -5.607447|   -8.257320|    0.824005|    0.012011|
|         317|   -5.613868|   -8.264606|    0.824005|    0.012012|
|         318|   -5.623610|   -8.270432|    0.824005|    0.012012|
|         319|   -5.635321|   -8.274703|    0.824005|    0.012012|
|         320|   -5.647181|   -8.277398|    0.824005|    0.012012|
|         321|   -5.657863|   -8.278566|    0.824004|    0.012012|
|         322|   -5.667036|   -8.278321|    0.824004|    0.012012|
|         323|   -5.675185|   -8.276827|    0.824004|    0.012012|
|         324|   -5.683046|   -8.274290|    0.824004|    0.012012|
|         325|   -5.691151|   -8.270942|    0.824004|    0.012012|
|         326|   -5.699692|   -8.267019|    0.824004|    0.012012|
|         327|   -5.708603|   -8.262756|    0.824004|    0.012013|
|         328|   -5.717701|   -8.258367|    0.824004|    0.012013|
|         329|   -5.726774|   -8.254044|    0.824004|    0.012013|
|         330|   -5.735611|   -8.249942|    0.824004|    0.012013|
|         331|   -5.744038|   -8.246190|    0.824004|    0.012013|
|         332|   -5.751961|   -8.242889|    0.824004|    0.012013|
|         333|   -5.759407|   -8.240118|    0.824004|    0.012013|
|         334|   -5.766521|   -8.237928|    0.824005|    0.012013|
|         335|   -5.773528|   -8.236351|    0.824005|    0.012013|
|         336|   -5.780659|   -8.235400|    0.824005|    0.012013|
|         337|   -5.788089|   -8.235073|    0.824005|    0.012014|
|         338|   -5.795891|   -8.235353|    0.824005|    0.012014|
|         339|   -5.804020|   -8.236210|    0.824005|    0.012014|
|         340|   -5.812315|   -8.237605|    0.824005|    0.012014|
|         341|   -5.820534|   -8.239490|    0.824005|    0.012014|
|         342|   -5.828400|   -8.241809|    0.824005|    0.012014|
|         343|   -5.835671|   -8.244503|    0.824005|    0.012014|
|         344|   -5.842194|   -8.247505|    0.824005|    0.012014|
|         345|   -5.847942|   -8.250751|    0.824005|    0.012014|
|         346|   -5.853001|   -8.254174|    0.824005|    0.012014|
|         347|   -5.857539|   -8.257706|    0.824005|    0.012014|
|         348|   -5.861744|   -8.261282|    0.824005|    0.012014|
|         349|   -5.865769|   -8.264843|    0.824005|    0.012014|
|         350|   -5.869704|   -8.268325|    0.824004|    0.012014|
|         351|   -5.873562|   -8.271676|    0.824004|    0.012014|
|         352|   -5.877295|   -8.274837|    0.824004|    0.012014|
|         353|   -5.880815|   -8.277757|    0.824004|    0.012014|
|         354|   -5.884032|   -8.280386|    0.824003|    0.012014|
|         355|   -5.886874|   -8.282678|    0.824003|    0.012014|
|         356|   -5.889309|   -8.284588|    0.824003|    0.012014|
|         357|   -5.891349|   -8.286073|    0.824002|    0.012014|
|         358|   -5.893040|   -8.287094|    0.824002|    0.012014|
|         359|   -5.894457|   -8.287612|    0.824001|    0.012014|
|         360|   -5.895679|   -8.287593|    0.824001|    0.012014|
|         361|   -5.896786|   -8.287004|    0.824000|    0.012014|
|         362|   -5.897843|   -8.285821|    0.824000|    0.012014|
|         363|   -5.898902|   -8.284024|    0.823999|    0.012014|
|         364|   -5.899998|   -8.281607|    0.823999|    0.012014|
|         365|   -5.901159|   -8.278571|    0.823998|    0.012014|
|         366|   -5.902402|   -8.274932|    0.823998|    0.012014|
|         367|   -5.903743|   -8.270721|    0.823997|    0.012014|
|         368|   -5.905197|   -8.265979|    0.823997|    0.012013|
|         369|   -5.906778|   -8.260762|    0.823996|    0.012013|
|         370|   -5.908501|   -8.255140|    0.823996|    0.012013|
|         371|   -5.910381|   -8.249188|    0.823995|    0.012013|
|         372|   -5.912431|   -8.242993|    0.823995|    0.012013|
|         373|   -5.914663|   -8.236644|    0.823995|    0.012013|
|         374|   -5.917088|   -8.230233|    0.823994|    0.012013|
|         375|   -5.919714|   -8.223852|    0.823994|    0.012013|
|         376|   -5.922549|   -8.217591|    0.823994|    0.012013|
|         377|   -5.925600|   -8.211535|    0.823994|    0.012013|
|         378|   -5.928873|   -8.205762|    0.823993|    0.012013|
|         379|   -5.932374|   -8.200344|    0.823993|    0.012013|
|         380|   -5.936110|   -8.195344|    0.823993|    0.012013|
|         381|   -5.940084|   -8.190816|    0.823993|    0.012012|
|         382|   -5.944303|   -8.186807|    0.823993|    0.012012|
|         383|   -5.948770|   -8.183353|    0.823993|    0.012012|
|         384|   -5.953488|   -8.180481|    0.823993|    0.012012|
|         385|   -5.958457|   -8.178209|    0.823994|    0.012012|
|         386|   -5.963678|   -8.176549|    0.823994|    0.012012|
|         387|   -5.969145|   -8.175499|    0.823994|    0.012012|
|         388|   -5.974855|   -8.175055|    0.823995|    0.012012|
|         389|   -5.980797|   -8.175202|    0.823995|    0.012012|
|         390|   -5.986961|   -8.175918|    0.823995|    0.012012|
|         391|   -5.993333|   -8.177174|    0.823996|    0.012012|
|         392|   -5.999892|   -8.178935|    0.823996|    0.012012|
|         393|   -6.006619|   -8.181161|    0.823997|    0.012012|
|         394|   -6.013485|   -8.183807|    0.823997|    0.012012|
|         395|   -6.020463|   -8.186823|    0.823998|    0.012012|
|         396|   -6.027517|   -8.190158|    0.823998|    0.012012|
|         397|   -6.034610|   -8.193760|    0.823999|    0.012012|
|         398|   -6.041699|   -8.197575|    0.824000|    0.012012|
|         399|   -6.048739|   -8.201551|    0.824000|    0.012012|
|         400|   -6.055681|   -8.205641|    0.824001|    0.012012|
|         401|   -6.062473|   -8.209798|    0.824002|    0.012012|
+-----------------------------------------------------------------------+
|Fixed CL Mode                           |Value                         |
+-----------------------------------------------------------------------+
|Current CL                              |0.824002                      |
|Target CL                               |0.824                         |
|Previous AOA                            |2.78054                       |
|Changed AoA by                          |-4.53269e-06                  |
+-----------------------------------------------------------------------+
+----------------------------------------------------------------+
|  Inner_Iter|    rms[Rho]|     rms[nu]|          CL|          CD|
+----------------------------------------------------------------+
|         402|   -5.516473|   -8.213561|    0.824002|    0.012012|
|         403|   -5.819853|   -8.217906|    0.824003|    0.012012|
|         404|   -5.944108|   -8.222107|    0.824004|    0.012012|
|         405|   -5.978706|   -8.226236|    0.824004|    0.012012|
|         406|   -6.003484|   -8.230295|    0.824005|    0.012012|
|         407|   -6.029014|   -8.234284|    0.824005|    0.012012|
|         408|   -6.052797|   -8.238208|    0.824006|    0.012012|
|         409|   -6.071685|   -8.242079|    0.824007|    0.012012|
|         410|   -6.085002|   -8.245907|    0.824007|    0.012012|
|         411|   -6.094040|   -8.249711|    0.824008|    0.012012|
|         412|   -6.100221|   -8.253507|    0.824009|    0.012012|
|         413|   -6.104336|   -8.257314|    0.824009|    0.012012|
|         414|   -6.106815|   -8.261153|    0.824010|    0.012012|
|         415|   -6.108091|   -8.265041|    0.824010|    0.012012|
|         416|   -6.108631|   -8.268995|    0.824011|    0.012012|
|         417|   -6.108797|   -8.273031|    0.824011|    0.012012|
|         418|   -6.108754|   -8.277159|    0.824012|    0.012012|
|         419|   -6.108495|   -8.281390|    0.824013|    0.012012|
|         420|   -6.107953|   -8.285729|    0.824013|    0.012012|
|         421|   -6.107093|   -8.290180|    0.824013|    0.012012|
|         422|   -6.105942|   -8.294741|    0.824014|    0.012012|
|         423|   -6.104565|   -8.299408|    0.824014|    0.012012|
|         424|   -6.103028|   -8.304175|    0.824015|    0.012012|
|         425|   -6.101377|   -8.309029|    0.824015|    0.012012|
|         426|   -6.099642|   -8.313957|    0.824016|    0.012012|
|         427|   -6.097852|   -8.318945|    0.824016|    0.012012|
|         428|   -6.096045|   -8.323978|    0.824016|    0.012012|
|         429|   -6.094270|   -8.329043|    0.824017|    0.012013|
|         430|   -6.092577|   -8.334124|    0.824017|    0.012013|
|         431|   -6.091019|   -8.339208|    0.824017|    0.012013|
|         432|   -6.089642|   -8.344280|    0.824017|    0.012013|
|         433|   -6.088483|   -8.349330|    0.824018|    0.012013|
|         434|   -6.087577|   -8.354344|    0.824018|    0.012013|
|         435|   -6.086948|   -8.359314|    0.824018|    0.012013|
|         436|   -6.086613|   -8.364232|    0.824018|    0.012013|
|         437|   -6.086583|   -8.369090|    0.824018|    0.012013|
|         438|   -6.086864|   -8.373884|    0.824018|    0.012013|
|         439|   -6.087459|   -8.378608|    0.824018|    0.012013|
|         440|   -6.088366|   -8.383253|    0.824018|    0.012013|
|         441|   -6.089586|   -8.387816|    0.824018|    0.012013|
|         442|   -6.091115|   -8.392293|    0.824019|    0.012013|
|         443|   -6.092954|   -8.396679|    0.824019|    0.012013|
|         444|   -6.095100|   -8.400973|    0.824019|    0.012013|
|         445|   -6.097552|   -8.405168|    0.824019|    0.012013|
|         446|   -6.100308|   -8.409255|    0.824019|    0.012013|
|         447|   -6.103362|   -8.413228|    0.824018|    0.012013|
|         448|   -6.106705|   -8.417077|    0.824018|    0.012013|
|         449|   -6.110323|   -8.420792|    0.824018|    0.012013|
|         450|   -6.114199|   -8.424366|    0.824018|    0.012013|
|         451|   -6.118307|   -8.427790|    0.824018|    0.012013|
|         452|   -6.122621|   -8.431058|    0.824018|    0.012013|
|         453|   -6.127110|   -8.434166|    0.824018|    0.012012|
|         454|   -6.131744|   -8.437114|    0.824018|    0.012012|
|         455|   -6.136490|   -8.439904|    0.824018|    0.012012|
|         456|   -6.141315|   -8.442543|    0.824018|    0.012012|
|         457|   -6.146188|   -8.445042|    0.824018|    0.012012|
|         458|   -6.151078|   -8.447415|    0.824018|    0.012012|
|         459|   -6.155951|   -8.449679|    0.824017|    0.012012|
|         460|   -6.160776|   -8.451856|    0.824017|    0.012012|
|         461|   -6.165522|   -8.453968|    0.824017|    0.012012|
|         462|   -6.170155|   -8.456039|    0.824017|    0.012012|
|         463|   -6.174645|   -8.458095|    0.824017|    0.012012|
|         464|   -6.178961|   -8.460160|    0.824017|    0.012012|
|         465|   -6.183074|   -8.462259|    0.824017|    0.012012|
|         466|   -6.186957|   -8.464414|    0.824017|    0.012012|
|         467|   -6.190586|   -8.466644|    0.824017|    0.012012|
|         468|   -6.193941|   -8.468966|    0.824016|    0.012012|
|         469|   -6.197003|   -8.471393|    0.824016|    0.012012|
|         470|   -6.199761|   -8.473933|    0.824016|    0.012012|
|         471|   -6.202205|   -8.476591|    0.824016|    0.012012|
|         472|   -6.204330|   -8.479364|    0.824016|    0.012012|
|         473|   -6.206136|   -8.482249|    0.824016|    0.012012|
|         474|   -6.207625|   -8.485234|    0.824016|    0.012012|
|         475|   -6.208805|   -8.488303|    0.824016|    0.012011|
|         476|   -6.209688|   -8.491437|    0.824016|    0.012011|
|         477|   -6.210287|   -8.494611|    0.824016|    0.012011|
|         478|   -6.210623|   -8.497799|    0.824016|    0.012011|
|         479|   -6.210716|   -8.500969|    0.824015|    0.012011|
|         480|   -6.210592|   -8.504089|    0.824015|    0.012011|
|         481|   -6.210278|   -8.507124|    0.824015|    0.012011|
|         482|   -6.209804|   -8.510042|    0.824015|    0.012011|
|         483|   -6.209201|   -8.512807|    0.824015|    0.012011|
|         484|   -6.208503|   -8.515391|    0.824015|    0.012011|
|         485|   -6.207743|   -8.517764|    0.824015|    0.012011|
|         486|   -6.206955|   -8.519903|    0.824015|    0.012011|
|         487|   -6.206173|   -8.521790|    0.824015|    0.012011|
|         488|   -6.205431|   -8.523412|    0.824015|    0.012011|
|         489|   -6.204762|   -8.524765|    0.824015|    0.012011|
|         490|   -6.204197|   -8.525853|    0.824015|    0.012011|
|         491|   -6.203765|   -8.526683|    0.824015|    0.012011|
|         492|   -6.203494|   -8.527274|    0.824015|    0.012011|
|         493|   -6.203411|   -8.527649|    0.824015|    0.012011|
|         494|   -6.203537|   -8.527835|    0.824015|    0.012011|
|         495|   -6.203892|   -8.527865|    0.824015|    0.012011|
|         496|   -6.204494|   -8.527777|    0.824015|    0.012011|
|         497|   -6.205356|   -8.527612|    0.824015|    0.012011|
|         498|   -6.206487|   -8.527413|    0.824015|    0.012011|
|         499|   -6.207895|   -8.527217|    0.824015|    0.012011|
|         500|   -6.209581|   -8.527060|    0.824015|    0.012011|
|         501|   -6.211544|   -8.526976|    0.824015|    0.012009|
+-----------------------------------------------------------------------+
|Fixed CL Mode                           |Value                         |
+-----------------------------------------------------------------------+
|Current CL                              |0.824015                      |
|Target CL                               |0.824                         |
|Previous AOA                            |2.78054                       |
|Changed AoA by                          |-7.67842e-05                  |
+-----------------------------------------------------------------------+
+----------------------------------------------------------------+
|  Inner_Iter|    rms[Rho]|     rms[nu]|          CL|          CD|
+----------------------------------------------------------------+
|         502|   -4.308006|   -8.307280|    0.824016|    0.012009|
|         503|   -4.691647|   -8.391490|    0.824016|    0.012009|
|         504|   -4.933649|   -8.423685|    0.824016|    0.012010|
|         505|   -5.011756|   -8.443181|    0.824016|    0.012010|
|         506|   -5.065476|   -8.457926|    0.824016|    0.012010|
|         507|   -5.135259|   -8.469966|    0.824016|    0.012010|
|         508|   -5.221575|   -8.480035|    0.824016|    0.012010|
|         509|   -5.311972|   -8.488620|    0.824016|    0.012010|
|         510|   -5.390294|   -8.496020|    0.824016|    0.012010|
|         511|   -5.448155|   -8.502277|    0.824016|    0.012010|
|         512|   -5.486820|   -8.507431|    0.824017|    0.012010|
|         513|   -5.509728|   -8.511762|    0.824017|    0.012010|
|         514|   -5.520455|   -8.515697|    0.824017|    0.012010|
|         515|   -5.524798|   -8.519533|    0.824017|    0.012010|
|         516|   -5.529497|   -8.523340|    0.824017|    0.012010|
|         517|   -5.539156|   -8.527035|    0.824017|    0.012010|
|         518|   -5.554931|   -8.530553|    0.824017|    0.012010|
|         519|   -5.575094|   -8.533951|    0.824017|    0.012010|
|         520|   -5.596538|   -8.537344|    0.824018|    0.012010|
|         521|   -5.616625|   -8.540835|    0.824018|    0.012010|
|         522|   -5.634480|   -8.544440|    0.824018|    0.012010|
|         523|   -5.650918|   -8.548087|    0.824018|    0.012011|
|         524|   -5.667290|   -8.551628|    0.824018|    0.012011|
|         525|   -5.684391|   -8.554921|    0.824018|    0.012011|
|         526|   -5.702102|   -8.557876|    0.824018|    0.012011|
|         527|   -5.719635|   -8.560420|    0.824018|    0.012011|
|         528|   -5.735986|   -8.562517|    0.824018|    0.012011|
|         529|   -5.750283|   -8.564152|    0.824018|    0.012011|
|         530|   -5.761972|   -8.565337|    0.824018|    0.012011|
|         531|   -5.770918|   -8.566102|    0.824018|    0.012011|
|         532|   -5.777450|   -8.566475|    0.824018|    0.012011|
|         533|   -5.782327|   -8.566461|    0.824018|    0.012011|
|         534|   -5.786571|   -8.566084|    0.824018|    0.012011|
|         535|   -5.791219|   -8.565334|    0.824018|    0.012011|
|         536|   -5.797095|   -8.564203|    0.824018|    0.012012|
|         537|   -5.804676|   -8.562681|    0.824018|    0.012012|
|         538|   -5.814051|   -8.560759|    0.824018|    0.012012|
|         539|   -5.824928|   -8.558437|    0.824018|    0.012012|
|         540|   -5.836692|   -8.555716|    0.824018|    0.012012|
|         541|   -5.848504|   -8.552617|    0.824018|    0.012012|
|         542|   -5.859466|   -8.549173|    0.824018|    0.012012|
|         543|   -5.868851|   -8.545436|    0.824018|    0.012012|
|         544|   -5.876309|   -8.541461|    0.824018|    0.012012|
|         545|   -5.881980|   -8.537311|    0.824018|    0.012012|
|         546|   -5.886428|   -8.533045|    0.824018|    0.012012|
|         547|   -5.890446|   -8.528723|    0.824017|    0.012012|
|         548|   -5.894831|   -8.524399|    0.824017|    0.012012|
|         549|   -5.900195|   -8.520121|    0.824017|    0.012012|
|         550|   -5.906875|   -8.515928|    0.824017|    0.012012|
|         551|   -5.914922|   -8.511870|    0.824016|    0.012012|
|         552|   -5.924147|   -8.507971|    0.824016|    0.012012|
|         553|   -5.934196|   -8.504283|    0.824016|    0.012012|
|         554|   -5.944650|   -8.500840|    0.824015|    0.012012|
|         555|   -5.955117|   -8.497682|    0.824015|    0.012012|
|         556|   -5.965308|   -8.494854|    0.824014|    0.012012|
|         557|   -5.975084|   -8.492409|    0.824014|    0.012012|
|         558|   -5.984451|   -8.490406|    0.824013|    0.012012|
|         559|   -5.993536|   -8.488905|    0.824013|    0.012012|
|         560|   -6.002523|   -8.487970|    0.824012|    0.012012|
|         561|   -6.011608|   -8.487662|    0.824012|    0.012012|
|         562|   -6.020947|   -8.488042|    0.824011|    0.012012|
|         563|   -6.030642|   -8.489166|    0.824011|    0.012012|
|         564|   -6.040732|   -8.491088|    0.824010|    0.012012|
|         565|   -6.051204|   -8.493852|    0.824009|    0.012011|
|         566|   -6.062013|   -8.497496|    0.824009|    0.012011|
|         567|   -6.073093|   -8.502042|    0.824008|    0.012011|
|         568|   -6.084378|   -8.507500|    0.824007|    0.012011|
|         569|   -6.095806|   -8.513858|    0.824007|    0.012011|
|         570|   -6.107324|   -8.521080|    0.824006|    0.012011|
|         571|   -6.118879|   -8.529101|    0.824006|    0.012011|
|         572|   -6.130419|   -8.537818|    0.824005|    0.012011|
|         573|   -6.141881|   -8.547089|    0.824004|    0.012011|
|         574|   -6.153191|   -8.556725|    0.824004|    0.012011|
|         575|   -6.164263|   -8.566485|    0.824003|    0.012011|
|         576|   -6.174995|   -8.576081|    0.824003|    0.012010|
|         577|   -6.185282|   -8.585178|    0.824002|    0.012010|
|         578|   -6.195015|   -8.593414|    0.824002|    0.012010|
|         579|   -6.204093|   -8.600418|    0.824001|    0.012010|
|         580|   -6.212427|   -8.605848|    0.824001|    0.012010|
|         581|   -6.219945|   -8.609421|    0.824001|    0.012010|
|         582|   -6.226600|   -8.610957|    0.824001|    0.012010|
|         583|   -6.232369|   -8.610399|    0.824000|    0.012010|
|         584|   -6.237256|   -8.607826|    0.824000|    0.012010|
|         585|   -6.241290|   -8.603444|    0.824000|    0.012010|
|         586|   -6.244524|   -8.597557|    0.824000|    0.012010|
|         587|   -6.247032|   -8.590539|    0.824000|    0.012010|
|         588|   -6.248903|   -8.582789|    0.824000|    0.012009|
|         589|   -6.250237|   -8.574703|    0.824000|    0.012009|
|         590|   -6.251142|   -8.566650|    0.824000|    0.012009|
|         591|   -6.251725|   -8.558956|    0.824001|    0.012009|
|         592|   -6.252092|   -8.551898|    0.824001|    0.012009|
|         593|   -6.252341|   -8.545707|    0.824001|    0.012009|
|         594|   -6.252564|   -8.540564|    0.824002|    0.012009|
|         595|   -6.252840|   -8.536609|    0.824002|    0.012009|
|         596|   -6.253241|   -8.533946|    0.824002|    0.012009|
|         597|   -6.253825|   -8.532648|    0.824003|    0.012009|
|         598|   -6.254638|   -8.532759|    0.824003|    0.012009|
|         599|   -6.255721|   -8.534299|    0.824004|    0.012009|
|         600|   -6.257101|   -8.537264|    0.824004|    0.012009|
|         601|   -6.258800|   -8.541631|    0.824005|    0.012009|
+-----------------------------------------------------------------------+
|Fixed CL Mode                           |Value                         |
+-----------------------------------------------------------------------+
|Current CL                              |0.824005                      |
|Target CL                               |0.824                         |
|Previous AOA                            |2.78046                       |
|Changed AoA by                          |-2.01294e-05                  |
+-----------------------------------------------------------------------+
+----------------------------------------------------------------+
|  Inner_Iter|    rms[Rho]|     rms[nu]|          CL|          CD|
+----------------------------------------------------------------+
|         602|   -4.889024|   -8.519007|    0.824005|    0.012009|
|         603|   -5.268990|   -8.539010|    0.824006|    0.012008|
|         604|   -5.500299|   -8.551288|    0.824006|    0.012008|
|         605|   -5.571886|   -8.562830|    0.824007|    0.012008|
|         606|   -5.621952|   -8.574585|    0.824007|    0.012008|
|         607|   -5.687049|   -8.586647|    0.824008|    0.012008|
|         608|   -5.766307|   -8.598929|    0.824008|    0.012008|
|         609|   -5.847824|   -8.611286|    0.824009|    0.012008|
|         610|   -5.918165|   -8.623502|    0.824009|    0.012008|
|         611|   -5.971645|   -8.635293|    0.824010|    0.012009|
|         612|   -6.009890|   -8.646334|    0.824010|    0.012009|
|         613|   -6.035298|   -8.656325|    0.824011|    0.012009|
|         614|   -6.049947|   -8.665006|    0.824011|    0.012009|
|         615|   -6.057890|   -8.672148|    0.824012|    0.012009|
|         616|   -6.064565|   -8.677565|    0.824012|    0.012009|
|         617|   -6.074140|   -8.681150|    0.824012|    0.012009|
|         618|   -6.088059|   -8.682902|    0.824013|    0.012009|
|         619|   -6.105367|   -8.682936|    0.824013|    0.012009|
|         620|   -6.124011|   -8.681462|    0.824014|    0.012009|
|         621|   -6.142307|   -8.678743|    0.824014|    0.012009|
|         622|   -6.159803|   -8.675056|    0.824014|    0.012009|
|         623|   -6.177099|   -8.670680|    0.824014|    0.012009|
|         624|   -6.194975|   -8.665881|    0.824015|    0.012009|
|         625|   -6.213639|   -8.660895|    0.824015|    0.012009|
|         626|   -6.232513|   -8.655953|    0.824015|    0.012009|
|         627|   -6.250509|   -8.651239|    0.824015|    0.012009|
|         628|   -6.266473|   -8.646911|    0.824015|    0.012009|
|         629|   -6.279573|   -8.643096|    0.824015|    0.012009|
|         630|   -6.289484|   -8.639889|    0.824016|    0.012009|
|         631|   -6.296413|   -8.637359|    0.824016|    0.012009|
|         632|   -6.301008|   -8.635544|    0.824016|    0.012010|
|         633|   -6.304194|   -8.634457|    0.824016|    0.012010|
|         634|   -6.306955|   -8.634089|    0.824016|    0.012010|
|         635|   -6.310122|   -8.634407|    0.824016|    0.012010|
|         636|   -6.314228|   -8.635364|    0.824015|    0.012010|
|         637|   -6.319444|   -8.636898|    0.824015|    0.012010|
|         638|   -6.325599|   -8.638935|    0.824015|    0.012010|
|         639|   -6.332239|   -8.641396|    0.824015|    0.012010|
|         640|   -6.338728|   -8.644197|    0.824015|    0.012010|
|         641|   -6.344376|   -8.647251|    0.824015|    0.012010|
|         642|   -6.348601|   -8.650474|    0.824015|    0.012010|
|         643|   -6.351072|   -8.653785|    0.824014|    0.012010|
|         644|   -6.351806|   -8.657107|    0.824014|    0.012010|
|         645|   -6.351151|   -8.660372|    0.824014|    0.012010|
|         646|   -6.349672|   -8.663519|    0.824014|    0.012011|
|         647|   -6.347998|   -8.666496|    0.824014|    0.012011|
|         648|   -6.346674|   -8.669260|    0.824013|    0.012011|
|         649|   -6.346076|   -8.671777|    0.824013|    0.012011|
|         650|   -6.346385|   -8.674022|    0.824013|    0.012011|
|         651|   -6.347603|   -8.675977|    0.824013|    0.012011|
|         652|   -6.349611|   -8.677628|    0.824012|    0.012011|
|         653|   -6.352227|   -8.678965|    0.824012|    0.012011|
|         654|   -6.355263|   -8.679990|    0.824012|    0.012011|
|         655|   -6.358576|   -8.680696|    0.824012|    0.012011|
|         656|   -6.362091|   -8.681081|    0.824011|    0.012011|
|         657|   -6.365810|   -8.681135|    0.824011|    0.012011|
|         658|   -6.369792|   -8.680852|    0.824011|    0.012011|
|         659|   -6.374137|   -8.680230|    0.824011|    0.012011|
|         660|   -6.378958|   -8.679265|    0.824010|    0.012011|
|         661|   -6.384357|   -8.677960|    0.824010|    0.012011|
|         662|   -6.390415|   -8.676319|    0.824010|    0.012011|
|         663|   -6.397182|   -8.674354|    0.824010|    0.012011|
|         664|   -6.404684|   -8.672085|    0.824009|    0.012011|
|         665|   -6.412926|   -8.669540|    0.824009|    0.012011|
|         666|   -6.421899|   -8.666759|    0.824009|    0.012011|
|         667|   -6.431590|   -8.663792|    0.824009|    0.012011|
|         668|   -6.441984|   -8.660696|    0.824008|    0.012011|
|         669|   -6.453068|   -8.657537|    0.824008|    0.012011|
|         670|   -6.464829|   -8.654386|    0.824008|    0.012011|
|         671|   -6.477253|   -8.651313|    0.824008|    0.012011|
|         672|   -6.490323|   -8.648394|    0.824007|    0.012011|
|         673|   -6.504011|   -8.645698|    0.824007|    0.012011|
|         674|   -6.518276|   -8.643290|    0.824007|    0.012011|
|         675|   -6.533063|   -8.641228|    0.824007|    0.012011|
|         676|   -6.548299|   -8.639560|    0.824006|    0.012011|
|         677|   -6.563888|   -8.638323|    0.824006|    0.012011|
|         678|   -6.579716|   -8.637541|    0.824006|    0.012011|
|         679|   -6.595646|   -8.637224|    0.824006|    0.012011|
|         680|   -6.611518|   -8.637369|    0.824005|    0.012011|
|         681|   -6.627153|   -8.637958|    0.824005|    0.012011|
|         682|   -6.642355|   -8.638958|    0.824005|    0.012011|
|         683|   -6.656913|   -8.640323|    0.824005|    0.012011|
|         684|   -6.670614|   -8.641994|    0.824005|    0.012011|
|         685|   -6.683250|   -8.643902|    0.824005|    0.012011|
|         686|   -6.694631|   -8.645970|    0.824004|    0.012011|
|         687|   -6.704597|   -8.648115|    0.824004|    0.012011|
|         688|   -6.713032|   -8.650253|    0.824004|    0.012011|
|         689|   -6.719875|   -8.652304|    0.824004|    0.012011|
|         690|   -6.725119|   -8.654193|    0.824004|    0.012011|
|         691|   -6.728817|   -8.655858|    0.824004|    0.012011|
|         692|   -6.731074|   -8.657252|    0.824004|    0.012011|
|         693|   -6.732038|   -8.658347|    0.824004|    0.012011|
|         694|   -6.731886|   -8.659134|    0.824004|    0.012011|
|         695|   -6.730813|   -8.659624|    0.824004|    0.012011|
|         696|   -6.729019|   -8.659847|    0.824004|    0.012011|
|         697|   -6.726700|   -8.659849|    0.824004|    0.012011|
|         698|   -6.724039|   -8.659689|    0.824004|    0.012010|
|         699|   -6.721202|   -8.659434|    0.824004|    0.012010|
|         700|   -6.718339|   -8.659157|    0.824004|    0.012010|
|         701|   -6.715576|   -8.658927|    0.824004|    0.012010|
+-----------------------------------------------------------------------+
|Fixed CL Mode                           |Value                         |
+-----------------------------------------------------------------------+
|Current CL                              |0.824004                      |
|Target CL                               |0.824                         |
|Previous AOA                            |2.78044                       |
|Changed AoA by                          |-1.9252e-05                   |
+-----------------------------------------------------------------------+
+----------------------------------------------------------------+
|  Inner_Iter|    rms[Rho]|     rms[nu]|          CL|          CD|
+----------------------------------------------------------------+
|         702|   -4.908837|   -8.618256|    0.824004|    0.012010|
|         703|   -5.291583|   -8.637621|    0.824004|    0.012010|
|         704|   -5.529703|   -8.643941|    0.824004|    0.012010|
|         705|   -5.604738|   -8.647837|    0.824004|    0.012010|
|         706|   -5.656857|   -8.651025|    0.824004|    0.012010|
|         707|   -5.725275|   -8.653933|    0.824004|    0.012010|
|         708|   -5.810199|   -8.656725|    0.824005|    0.012010|
|         709|   -5.899789|   -8.659499|    0.824005|    0.012010|
|         710|   -5.979048|   -8.662297|    0.824005|    0.012010|
|         711|   -6.040062|   -8.665106|    0.824005|    0.012010|
|         712|   -6.083290|   -8.667888|    0.824005|    0.012010|
|         713|   -6.110868|   -8.670625|    0.824005|    0.012010|
|         714|   -6.125260|   -8.673313|    0.824005|    0.012010|
|         715|   -6.131813|   -8.675925|    0.824006|    0.012010|
|         716|   -6.137525|   -8.678406|    0.824006|    0.012010|
|         717|   -6.147505|   -8.680695|    0.824006|    0.012010|
|         718|   -6.163330|   -8.682739|    0.824006|    0.012010|
|         719|   -6.183557|   -8.684515|    0.824006|    0.012010|
|         720|   -6.205283|   -8.686020|    0.824006|    0.012010|
|         721|   -6.226024|   -8.687263|    0.824006|    0.012010|
|         722|   -6.244989|   -8.688251|    0.824007|    0.012010|
|         723|   -6.262992|   -8.688989|    0.824007|    0.012010|
|         724|   -6.281294|   -8.689488|    0.824007|    0.012010|
|         725|   -6.300523|   -8.689768|    0.824007|    0.012010|
|         726|   -6.320315|   -8.689856|    0.824007|    0.012010|
|         727|   -6.339596|   -8.689801|    0.824007|    0.012010|
|         728|   -6.357099|   -8.689647|    0.824007|    0.012010|
|         729|   -6.371802|   -8.689441|    0.824007|    0.012010|
|         730|   -6.383170|   -8.689230|    0.824007|    0.012010|
|         731|   -6.391240|   -8.689061|    0.824007|    0.012010|
|         732|   -6.396611|   -8.688971|    0.824007|    0.012010|
|         733|   -6.400309|   -8.688990|    0.824007|    0.012010|
|         734|   -6.403551|   -8.689136|    0.824008|    0.012010|
|         735|   -6.407462|   -8.689420|    0.824008|    0.012010|
|         736|   -6.412853|   -8.689840|    0.824008|    0.012010|
|         737|   -6.420121|   -8.690387|    0.824008|    0.012010|
|         738|   -6.429220|   -8.691044|    0.824008|    0.012010|
|         739|   -6.439704|   -8.691791|    0.824008|    0.012010|
|         740|   -6.450791|   -8.692603|    0.824008|    0.012010|
|         741|   -6.461497|   -8.693454|    0.824008|    0.012010|
|         742|   -6.470828|   -8.694320|    0.824008|    0.012010|
|         743|   -6.478041|   -8.695177|    0.824008|    0.012010|
|         744|   -6.482857|   -8.696005|    0.824008|    0.012010|
|         745|   -6.485547|   -8.696784|    0.824008|    0.012010|
|         746|   -6.486812|   -8.697502|    0.824008|    0.012010|
|         747|   -6.487545|   -8.698147|    0.824008|    0.012010|
|         748|   -6.488579|   -8.698710|    0.824008|    0.012010|
|         749|   -6.490514|   -8.699187|    0.824008|    0.012010|
|         750|   -6.493644|   -8.699577|    0.824008|    0.012010|
|         751|   -6.497970|   -8.699879|    0.824007|    0.012010|
|         752|   -6.503266|   -8.700095|    0.824007|    0.012010|
|         753|   -6.509172|   -8.700240|    0.824007|    0.012010|
|         754|   -6.515293|   -8.700322|    0.824007|    0.012011|
|         755|   -6.521287|   -8.700352|    0.824007|    0.012011|
|         756|   -6.526927|   -8.700340|    0.824007|    0.012011|
|         757|   -6.532129|   -8.700303|    0.824007|    0.012011|
|         758|   -6.536939|   -8.700260|    0.824007|    0.012011|
|         759|   -6.541488|   -8.700233|    0.824007|    0.012011|
|         760|   -6.545947|   -8.700247|    0.824007|    0.012011|
|         761|   -6.550477|   -8.700328|    0.824007|    0.012011|
|         762|   -6.555201|   -8.700506|    0.824007|    0.012011|
|         763|   -6.560186|   -8.700809|    0.824006|    0.012011|
|         764|   -6.565454|   -8.701268|    0.824006|    0.012011|
|         765|   -6.570986|   -8.701911|    0.824006|    0.012011|
|         766|   -6.576741|   -8.702767|    0.824006|    0.012011|
|         767|   -6.582675|   -8.703863|    0.824006|    0.012011|
|         768|   -6.588742|   -8.705221|    0.824006|    0.012011|
|         769|   -6.594908|   -8.706861|    0.824006|    0.012011|
|         770|   -6.601145|   -8.708794|    0.824005|    0.012011|
|         771|   -6.607432|   -8.711029|    0.824005|    0.012011|
|         772|   -6.613747|   -8.713561|    0.824005|    0.012011|
|         773|   -6.620066|   -8.716383|    0.824005|    0.012011|
|         774|   -6.626358|   -8.719472|    0.824005|    0.012011|
|         775|   -6.632588|   -8.722801|    0.824005|    0.012011|
|         776|   -6.638713|   -8.726329|    0.824005|    0.012011|
|         777|   -6.644689|   -8.730007|    0.824004|    0.012011|
|         778|   -6.650469|   -8.733777|    0.824004|    0.012011|
|         779|   -6.656011|   -8.737574|    0.824004|    0.012011|
|         780|   -6.661276|   -8.741328|    0.824004|    0.012011|
|         781|   -6.666232|   -8.744966|    0.824004|    0.012011|
|         782|   -6.670855|   -8.748415|    0.824004|    0.012011|
|         783|   -6.675129|   -8.751605|    0.824004|    0.012011|
|         784|   -6.679048|   -8.754476|    0.824004|    0.012011|
|         785|   -6.682614|   -8.756976|    0.824004|    0.012011|
|         786|   -6.685836|   -8.759071|    0.824004|    0.012011|
|         787|   -6.688733|   -8.760738|    0.824004|    0.012011|
|         788|   -6.691329|   -8.761977|    0.824004|    0.012011|
|         789|   -6.693652|   -8.762804|    0.824004|    0.012011|
|         790|   -6.695737|   -8.763250|    0.824004|    0.012011|
|         791|   -6.697617|   -8.763364|    0.824004|    0.012011|
|         792|   -6.699330|   -8.763207|    0.824004|    0.012011|
|         793|   -6.700909|   -8.762848|    0.824004|    0.012011|
|         794|   -6.702388|   -8.762364|    0.824004|    0.012011|
|         795|   -6.703796|   -8.761832|    0.824004|    0.012011|
|         796|   -6.705161|   -8.761328|    0.824004|    0.012011|
|         797|   -6.706503|   -8.760924|    0.824004|    0.012011|
|         798|   -6.707840|   -8.760686|    0.824004|    0.012011|
|         799|   -6.709188|   -8.760671|    0.824004|    0.012011|
|         800|   -6.710555|   -8.760927|    0.824004|    0.012011|
|         801|   -6.711948|   -8.761490|    0.824004|    0.012011|
+-----------------------------------------------------------------------+
|Fixed CL Mode                           |Value                         |
+-----------------------------------------------------------------------+
|Current CL                              |0.824004                      |
|Target CL                               |0.824                         |
|Previous AOA                            |2.78042                       |
|Changed AoA by                          |-2.04574e-05                  |
+-----------------------------------------------------------------------+
+----------------------------------------------------------------+
|  Inner_Iter|    rms[Rho]|     rms[nu]|          CL|          CD|
+----------------------------------------------------------------+
|         802|   -4.882512|   -8.694253|    0.824004|    0.012011|
|         803|   -5.266468|   -8.726982|    0.824004|    0.012010|
|         804|   -5.508325|   -8.738625|    0.824005|    0.012010|
|         805|   -5.585354|   -8.746126|    0.824005|    0.012010|
|         806|   -5.638016|   -8.752317|    0.824005|    0.012010|
|         807|   -5.706797|   -8.757872|    0.824005|    0.012010|
|         808|   -5.792044|   -8.763024|    0.824005|    0.012010|
|         809|   -5.881413|   -8.767916|    0.824005|    0.012010|
|         810|   -5.959158|   -8.772626|    0.824005|    0.012010|
|         811|   -6.017221|   -8.777159|    0.824005|    0.012010|
|         812|   -6.056754|   -8.781511|    0.824005|    0.012010|
|         813|   -6.080842|   -8.785733|    0.824006|    0.012010|
|         814|   -6.092685|   -8.789923|    0.824006|    0.012010|
|         815|   -6.097827|   -8.794136|    0.824006|    0.012010|
|         816|   -6.102956|   -8.798372|    0.824006|    0.012010|
|         817|   -6.112757|   -8.802600|    0.824006|    0.012010|
|         818|   -6.128507|   -8.806792|    0.824006|    0.012010|
|         819|   -6.148615|   -8.810950|    0.824006|    0.012010|
|         820|   -6.170116|   -8.815102|    0.824006|    0.012010|
|         821|   -6.190501|   -8.819267|    0.824006|    0.012010|
|         822|   -6.208967|   -8.823451|    0.824007|    0.012010|
|         823|   -6.226324|   -8.827634|    0.824007|    0.012010|
|         824|   -6.243864|   -8.831789|    0.824007|    0.012010|
|         825|   -6.262282|   -8.835898|    0.824007|    0.012010|
|         826|   -6.281330|   -8.839954|    0.824007|    0.012010|
|         827|   -6.300062|   -8.843954|    0.824007|    0.012010|
|         828|   -6.317313|   -8.847945|    0.824007|    0.012010|
|         829|   -6.332097|   -8.851936|    0.824007|    0.012010|
|         830|   -6.343832|   -8.855954|    0.824007|    0.012010|
|         831|   -6.352454|   -8.860027|    0.824007|    0.012010|
|         832|   -6.358438|   -8.864181|    0.824007|    0.012010|
|         833|   -6.362708|   -8.868430|    0.824007|    0.012010|
|         834|   -6.366421|   -8.872780|    0.824007|    0.012010|
|         835|   -6.370688|   -8.877225|    0.824007|    0.012010|
|         836|   -6.376346|   -8.881742|    0.824007|    0.012010|
|         837|   -6.383836|   -8.886305|    0.824007|    0.012010|
|         838|   -6.393173|   -8.890874|    0.824007|    0.012010|
|         839|   -6.403969|   -8.895411|    0.824007|    0.012010|
|         840|   -6.415505|   -8.899873|    0.824007|    0.012010|
|         841|   -6.426840|   -8.904222|    0.824007|    0.012010|
|         842|   -6.437003|   -8.908423|    0.824007|    0.012010|
|         843|   -6.445236|   -8.912447|    0.824007|    0.012010|
|         844|   -6.451215|   -8.916271|    0.824007|    0.012010|
|         845|   -6.455143|   -8.919876|    0.824007|    0.012010|
|         846|   -6.457662|   -8.923248|    0.824007|    0.012010|
|         847|   -6.459626|   -8.926373|    0.824007|    0.012010|
|         848|   -6.461856|   -8.929242|    0.824007|    0.012010|
|         849|   -6.464963|   -8.931841|    0.824007|    0.012010|
|         850|   -6.469263|   -8.934158|    0.824007|    0.012010|
|         851|   -6.474782|   -8.936180|    0.824006|    0.012010|
|         852|   -6.481318|   -8.937888|    0.824006|    0.012010|
|         853|   -6.488525|   -8.939281|    0.824006|    0.012010|
|         854|   -6.496013|   -8.940359|    0.824006|    0.012010|
|         855|   -6.503439|   -8.941107|    0.824006|    0.012010|
|         856|   -6.510574|   -8.941517|    0.824006|    0.012010|
|         857|   -6.517334|   -8.941589|    0.824006|    0.012010|
|         858|   -6.523767|   -8.941339|    0.824006|    0.012010|
|         859|   -6.530021|   -8.940785|    0.824006|    0.012010|
|         860|   -6.536287|   -8.939963|    0.824006|    0.012010|
|         861|   -6.542751|   -8.938911|    0.824005|    0.012010|
|         862|   -6.549565|   -8.937681|    0.824005|    0.012010|
|         863|   -6.556826|   -8.936333|    0.824005|    0.012010|
|         864|   -6.564579|   -8.934929|    0.824005|    0.012010|
|         865|   -6.572828|   -8.933539|    0.824005|    0.012010|
|         866|   -6.581550|   -8.932234|    0.824005|    0.012010|
|         867|   -6.590715|   -8.931091|    0.824004|    0.012010|
|         868|   -6.600291|   -8.930175|    0.824004|    0.012010|
|         869|   -6.610254|   -8.929552|    0.824004|    0.012010|
|         870|   -6.620588|   -8.929282|    0.824004|    0.012010|
|         871|   -6.631280|   -8.929413|    0.824004|    0.012010|
|         872|   -6.642317|   -8.929984|    0.824004|    0.012010|
|         873|   -6.653681|   -8.931019|    0.824004|    0.012010|
|         874|   -6.665342|   -8.932530|    0.824003|    0.012010|
|         875|   -6.677257|   -8.934511|    0.824003|    0.012010|
|         876|   -6.689368|   -8.936942|    0.824003|    0.012010|
|         877|   -6.701607|   -8.939787|    0.824003|    0.012010|
|         878|   -6.713893|   -8.942992|    0.824003|    0.012010|
|         879|   -6.726133|   -8.946487|    0.824003|    0.012010|
|         880|   -6.738231|   -8.950196|    0.824003|    0.012010|
|         881|   -6.750085|   -8.954019|    0.824002|    0.012010|
|         882|   -6.761589|   -8.957858|    0.824002|    0.012011|
|         883|   -6.772640|   -8.961606|    0.824002|    0.012011|
|         884|   -6.783138|   -8.965158|    0.824002|    0.012011|
|         885|   -6.792992|   -8.968419|    0.824002|    0.012011|
|         886|   -6.802118|   -8.971302|    0.824002|    0.012011|
|         887|   -6.810450|   -8.973742|    0.824002|    0.012011|
|         888|   -6.817938|   -8.975696|    0.824002|    0.012011|
|         889|   -6.824552|   -8.977147|    0.824002|    0.012011|
|         890|   -6.830284|   -8.978106|    0.824002|    0.012011|
|         891|   -6.835142|   -8.978612|    0.824002|    0.012011|
|         892|   -6.839156|   -8.978725|    0.824002|    0.012011|
|         893|   -6.842370|   -8.978530|    0.824002|    0.012011|
|         894|   -6.844841|   -8.978122|    0.824002|    0.012011|
|         895|   -6.846633|   -8.977605|    0.824002|    0.012011|
|         896|   -6.847818|   -8.977088|    0.824002|    0.012011|
|         897|   -6.848468|   -8.976674|    0.824002|    0.012011|
|         898|   -6.848654|   -8.976461|    0.824002|    0.012011|
|         899|   -6.848447|   -8.976534|    0.824002|    0.012011|
|         900|   -6.847913|   -8.976963|    0.824002|    0.012011|
|         901|   -6.847113|   -8.977802|    0.824002|    0.012011|
+-----------------------------------------------------------------------+
|Fixed CL Mode                           |Value                         |
+-----------------------------------------------------------------------+
|Current CL                              |0.824002                      |
|Target CL                               |0.824                         |
|Previous AOA                            |2.7804                        |
[...]
|        5298|   -6.044340|   -7.940711|    0.824238|    0.012014|
|        5299|   -6.051200|   -7.944347|    0.824238|    0.012014|
|        5300|   -6.057639|   -7.947999|    0.824238|    0.012014|
|        5301|   -6.063618|   -7.951677|    0.824238|    0.012014|
|        5302|   -6.069110|   -7.955392|    0.824238|    0.012014|
|        5303|   -6.074100|   -7.959150|    0.824238|    0.012014|
|        5304|   -6.078588|   -7.962953|    0.824238|    0.012014|
|        5305|   -6.082585|   -7.966805|    0.824238|    0.012014|
|        5306|   -6.086115|   -7.970710|    0.824239|    0.012014|
|        5307|   -6.089213|   -7.974666|    0.824239|    0.012014|
|        5308|   -6.091922|   -7.978673|    0.824239|    0.012014|
|        5309|   -6.094293|   -7.982730|    0.824239|    0.012014|
|        5310|   -6.096383|   -7.986838|    0.824239|    0.012014|
|        5311|   -6.098251|   -7.990999|    0.824239|    0.012014|
|        5312|   -6.099959|   -7.995216|    0.824239|    0.012014|
|        5313|   -6.101567|   -7.999495|    0.824239|    0.012014|
|        5314|   -6.103132|   -8.003839|    0.824239|    0.012014|
|        5315|   -6.104710|   -8.008255|    0.824240|    0.012014|
|        5316|   -6.106350|   -8.012751|    0.824240|    0.012014|
|        5317|   -6.108098|   -8.017332|    0.824240|    0.012014|
|        5318|   -6.109991|   -8.022008|    0.824240|    0.012014|
|        5319|   -6.112063|   -8.026784|    0.824240|    0.012014|
|        5320|   -6.114339|   -8.031667|    0.824240|    0.012014|
|        5321|   -6.116836|   -8.036662|    0.824240|    0.012014|
|        5322|   -6.119568|   -8.041774|    0.824241|    0.012014|
|        5323|   -6.122539|   -8.047006|    0.824241|    0.012014|
|        5324|   -6.125746|   -8.052359|    0.824241|    0.012015|
|        5325|   -6.129181|   -8.057831|    0.824241|    0.012015|
|        5326|   -6.132829|   -8.063421|    0.824241|    0.012015|
|        5327|   -6.136669|   -8.069125|    0.824241|    0.012015|
|        5328|   -6.140672|   -8.074937|    0.824241|    0.012015|
|        5329|   -6.144808|   -8.080848|    0.824242|    0.012015|
|        5330|   -6.149040|   -8.086850|    0.824242|    0.012015|
|        5331|   -6.153327|   -8.092937|    0.824242|    0.012015|
|        5332|   -6.157628|   -8.099096|    0.824242|    0.012015|
|        5333|   -6.161899|   -8.105319|    0.824242|    0.012015|
|        5334|   -6.166095|   -8.111591|    0.824242|    0.012015|
|        5335|   -6.170175|   -8.117897|    0.824242|    0.012016|
|        5336|   -6.174097|   -8.124225|    0.824243|    0.012016|
|        5337|   -6.177828|   -8.130560|    0.824243|    0.012016|
|        5338|   -6.181335|   -8.136891|    0.824243|    0.012016|
|        5339|   -6.184597|   -8.143205|    0.824243|    0.012016|
|        5340|   -6.187596|   -8.149494|    0.824243|    0.012016|
|        5341|   -6.190327|   -8.155747|    0.824243|    0.012016|
|        5342|   -6.192788|   -8.161959|    0.824243|    0.012016|
|        5343|   -6.194992|   -8.168122|    0.824243|    0.012016|
|        5344|   -6.196954|   -8.174233|    0.824244|    0.012016|
|        5345|   -6.198701|   -8.180290|    0.824244|    0.012016|
|        5346|   -6.200263|   -8.186290|    0.824244|    0.012016|
|        5347|   -6.201679|   -8.192233|    0.824244|    0.012016|
|        5348|   -6.202988|   -8.198120|    0.824244|    0.012016|
|        5349|   -6.204235|   -8.203952|    0.824244|    0.012017|
|        5350|   -6.205463|   -8.209731|    0.824244|    0.012017|
|        5351|   -6.206719|   -8.215459|    0.824244|    0.012017|
|        5352|   -6.208045|   -8.221139|    0.824244|    0.012017|
|        5353|   -6.209484|   -8.226773|    0.824244|    0.012017|
|        5354|   -6.211075|   -8.232363|    0.824244|    0.012017|
|        5355|   -6.212854|   -8.237911|    0.824244|    0.012017|
|        5356|   -6.214852|   -8.243418|    0.824244|    0.012017|
|        5357|   -6.217098|   -8.248886|    0.824244|    0.012017|
|        5358|   -6.219615|   -8.254314|    0.824244|    0.012017|
|        5359|   -6.222420|   -8.259702|    0.824244|    0.012017|
|        5360|   -6.225528|   -8.265049|    0.824245|    0.012017|
|        5361|   -6.228948|   -8.270355|    0.824245|    0.012017|
|        5362|   -6.232681|   -8.275618|    0.824245|    0.012017|
|        5363|   -6.236728|   -8.280836|    0.824245|    0.012017|
|        5364|   -6.241080|   -8.286006|    0.824245|    0.012017|
|        5365|   -6.245728|   -8.291126|    0.824244|    0.012017|
|        5366|   -6.250652|   -8.296193|    0.824244|    0.012017|
|        5367|   -6.255834|   -8.301206|    0.824244|    0.012017|
|        5368|   -6.261244|   -8.306162|    0.824244|    0.012017|
|        5369|   -6.266853|   -8.311060|    0.824244|    0.012017|
|        5370|   -6.272624|   -8.315900|    0.824244|    0.012017|
|        5371|   -6.278518|   -8.320683|    0.824244|    0.012017|
|        5372|   -6.284492|   -8.325408|    0.824244|    0.012017|
|        5373|   -6.290498|   -8.330077|    0.824244|    0.012017|
|        5374|   -6.296489|   -8.334694|    0.824244|    0.012016|
|        5375|   -6.302414|   -8.339262|    0.824244|    0.012016|
|        5376|   -6.308223|   -8.343786|    0.824244|    0.012016|
|        5377|   -6.313866|   -8.348271|    0.824244|    0.012016|
|        5378|   -6.319296|   -8.352725|    0.824244|    0.012016|
|        5379|   -6.324469|   -8.357153|    0.824244|    0.012016|
|        5380|   -6.329344|   -8.361566|    0.824244|    0.012016|
|        5381|   -6.333887|   -8.365971|    0.824244|    0.012016|
|        5382|   -6.338071|   -8.370378|    0.824244|    0.012016|
|        5383|   -6.341874|   -8.374795|    0.824244|    0.012016|
|        5384|   -6.345284|   -8.379234|    0.824244|    0.012016|
|        5385|   -6.348295|   -8.383701|    0.824244|    0.012016|
|        5386|   -6.350909|   -8.388206|    0.824244|    0.012016|
|        5387|   -6.353136|   -8.392756|    0.824244|    0.012015|
|        5388|   -6.354990|   -8.397358|    0.824244|    0.012015|
|        5389|   -6.356492|   -8.402017|    0.824244|    0.012015|
|        5390|   -6.357667|   -8.406735|    0.824244|    0.012015|
|        5391|   -6.358540|   -8.411514|    0.824244|    0.012015|
|        5392|   -6.359142|   -8.416353|    0.824244|    0.012015|
|        5393|   -6.359500|   -8.421249|    0.824245|    0.012015|
|        5394|   -6.359646|   -8.426197|    0.824245|    0.012015|
|        5395|   -6.359606|   -8.431190|    0.824245|    0.012015|
|        5396|   -6.359406|   -8.436219|    0.824245|    0.012015|
|        5397|   -6.359071|   -8.441271|    0.824245|    0.012014|
|        5398|   -6.358621|   -8.446333|    0.824245|    0.012014|
|        5399|   -6.358074|   -8.451390|    0.824245|    0.012014|
|        5400|   -6.357448|   -8.456426|    0.824245|    0.012014|
|        5401|   -6.356754|   -8.461422|    0.824245|    0.012014|
|        5402|   -6.356003|   -8.466362|    0.824246|    0.012014|
|        5403|   -6.355205|   -8.471227|    0.824246|    0.012014|
|        5404|   -6.354364|   -8.476001|    0.824246|    0.012014|
|        5405|   -6.353487|   -8.480665|    0.824246|    0.012014|
|        5406|   -6.352578|   -8.485204|    0.824246|    0.012014|
|        5407|   -6.351638|   -8.489606|    0.824246|    0.012013|
|        5408|   -6.350671|   -8.493856|    0.824247|    0.012013|
|        5409|   -6.349679|   -8.497947|    0.824247|    0.012013|
|        5410|   -6.348663|   -8.501869|    0.824247|    0.012013|
|        5411|   -6.347625|   -8.505617|    0.824247|    0.012013|
|        5412|   -6.346569|   -8.509187|    0.824247|    0.012013|
|        5413|   -6.345495|   -8.512579|    0.824247|    0.012013|
|        5414|   -6.344409|   -8.515791|    0.824247|    0.012013|
|        5415|   -6.343312|   -8.518825|    0.824248|    0.012013|
|        5416|   -6.342211|   -8.521683|    0.824248|    0.012013|
|        5417|   -6.341109|   -8.524364|    0.824248|    0.012013|
|        5418|   -6.340013|   -8.526872|    0.824248|    0.012013|
|        5419|   -6.338930|   -8.529212|    0.824248|    0.012013|
|        5420|   -6.337866|   -8.531388|    0.824248|    0.012013|
|        5421|   -6.336831|   -8.533405|    0.824248|    0.012013|
|        5422|   -6.335833|   -8.535267|    0.824248|    0.012012|
|        5423|   -6.334881|   -8.536979|    0.824249|    0.012012|
|        5424|   -6.333988|   -8.538546|    0.824249|    0.012012|
|        5425|   -6.333163|   -8.539971|    0.824249|    0.012012|
|        5426|   -6.332418|   -8.541259|    0.824249|    0.012012|
|        5427|   -6.331767|   -8.542414|    0.824249|    0.012012|
|        5428|   -6.331223|   -8.543439|    0.824249|    0.012012|
|        5429|   -6.330799|   -8.544340|    0.824249|    0.012012|
|        5430|   -6.330508|   -8.545121|    0.824249|    0.012012|
|        5431|   -6.330367|   -8.545789|    0.824249|    0.012012|
|        5432|   -6.330389|   -8.546351|    0.824249|    0.012012|
|        5433|   -6.330588|   -8.546816|    0.824249|    0.012012|
|        5434|   -6.330980|   -8.547194|    0.824249|    0.012012|
|        5435|   -6.331577|   -8.547496|    0.824249|    0.012012|
|        5436|   -6.332393|   -8.547735|    0.824249|    0.012012|
|        5437|   -6.333440|   -8.547926|    0.824249|    0.012012|
|        5438|   -6.334730|   -8.548082|    0.824249|    0.012013|
|        5439|   -6.336273|   -8.548220|    0.824250|    0.012013|
|        5440|   -6.338077|   -8.548354|    0.824250|    0.012013|
|        5441|   -6.340149|   -8.548501|    0.824250|    0.012013|
|        5442|   -6.342494|   -8.548676|    0.824250|    0.012013|
|        5443|   -6.345115|   -8.548894|    0.824250|    0.012013|
|        5444|   -6.348011|   -8.549169|    0.824250|    0.012013|
|        5445|   -6.351179|   -8.549515|    0.824250|    0.012013|
|        5446|   -6.354616|   -8.549942|    0.824249|    0.012013|
|        5447|   -6.358310|   -8.550462|    0.824249|    0.012013|
|        5448|   -6.362252|   -8.551085|    0.824249|    0.012013|
|        5449|   -6.366426|   -8.551817|    0.824249|    0.012013|
|        5450|   -6.370812|   -8.552665|    0.824249|    0.012013|
|        5451|   -6.375389|   -8.553635|    0.824249|    0.012013|
|        5452|   -6.380130|   -8.554729|    0.824249|    0.012013|
|        5453|   -6.385005|   -8.555949|    0.824249|    0.012013|
|        5454|   -6.389982|   -8.557297|    0.824249|    0.012014|
|        5455|   -6.395024|   -8.558772|    0.824249|    0.012014|
|        5456|   -6.400090|   -8.560374|    0.824249|    0.012014|
|        5457|   -6.405140|   -8.562099|    0.824249|    0.012014|
|        5458|   -6.410129|   -8.563945|    0.824249|    0.012014|
|        5459|   -6.415011|   -8.565909|    0.824249|    0.012014|
|        5460|   -6.419740|   -8.567987|    0.824249|    0.012014|
|        5461|   -6.424272|   -8.570174|    0.824248|    0.012014|
|        5462|   -6.428561|   -8.572465|    0.824248|    0.012014|
|        5463|   -6.432568|   -8.574856|    0.824248|    0.012014|
|        5464|   -6.436252|   -8.577342|    0.824248|    0.012014|
|        5465|   -6.439583|   -8.579917|    0.824248|    0.012014|
|        5466|   -6.442532|   -8.582578|    0.824248|    0.012014|
|        5467|   -6.445078|   -8.585319|    0.824248|    0.012014|
|        5468|   -6.447208|   -8.588135|    0.824248|    0.012015|
|        5469|   -6.448915|   -8.591021|    0.824247|    0.012015|
|        5470|   -6.450201|   -8.593973|    0.824247|    0.012015|
|        5471|   -6.451075|   -8.596987|    0.824247|    0.012015|
|        5472|   -6.451553|   -8.600057|    0.824247|    0.012015|
|        5473|   -6.451658|   -8.603178|    0.824247|    0.012015|
|        5474|   -6.451416|   -8.606348|    0.824247|    0.012015|
|        5475|   -6.450861|   -8.609561|    0.824246|    0.012015|
|        5476|   -6.450029|   -8.612813|    0.824246|    0.012015|
|        5477|   -6.448959|   -8.616100|    0.824246|    0.012015|
|        5478|   -6.447692|   -8.619417|    0.824246|    0.012015|
|        5479|   -6.446268|   -8.622761|    0.824246|    0.012015|
|        5480|   -6.444727|   -8.626127|    0.824245|    0.012015|
|        5481|   -6.443111|   -8.629511|    0.824245|    0.012015|
|        5482|   -6.441457|   -8.632910|    0.824245|    0.012015|
|        5483|   -6.439802|   -8.636320|    0.824245|    0.012015|
|        5484|   -6.438180|   -8.639738|    0.824245|    0.012015|
|        5485|   -6.436621|   -8.643161|    0.824245|    0.012015|
|        5486|   -6.435155|   -8.646588|    0.824244|    0.012015|
|        5487|   -6.433807|   -8.650015|    0.824244|    0.012015|
|        5488|   -6.432601|   -8.653442|    0.824244|    0.012015|
|        5489|   -6.431555|   -8.656868|    0.824244|    0.012015|
|        5490|   -6.430689|   -8.660294|    0.824244|    0.012015|
|        5491|   -6.430016|   -8.663719|    0.824244|    0.012015|
|        5492|   -6.429548|   -8.667145|    0.824243|    0.012015|
|        5493|   -6.429297|   -8.670575|    0.824243|    0.012015|
|        5494|   -6.429269|   -8.674010|    0.824243|    0.012015|
|        5495|   -6.429470|   -8.677455|    0.824243|    0.012015|
|        5496|   -6.429905|   -8.680912|    0.824243|    0.012015|
|        5497|   -6.430576|   -8.684386|    0.824243|    0.012015|
|        5498|   -6.431483|   -8.687882|    0.824243|    0.012015|
|        5499|   -6.432627|   -8.691405|    0.824243|    0.012000|
+-----------------------------------------------------------------------+
|Fixed CL Mode (Finite Difference)       |Value                         |
+-----------------------------------------------------------------------+
|Delta CL / Delta AoA                    |0.242439                      |
|Delta CD / Delta CL                     |0.0181229                     |
|Delta CMz / Delta CL                    |0.00572032                    |
+-----------------------------------------------------------------------+
Writing Flow Meta-Data file: flow.meta

----------------------------- Solver Exit -------------------------------

Maximum number of iterations reached (ITER = 5500) before convergence.
+-----------------------------------------------------------------------+
|      Convergence Field     |     Value    |   Criterion  |  Converged |
+-----------------------------------------------------------------------+
|                    rms[Rho]|      -6.43263|         < -12|          No|
+-----------------------------------------------------------------------+
-------------------------------------------------------------------------

--------------------------- Finalizing Solver ---------------------------
Deleted CNumerics container.
Deleted CIntegration container.
Deleted CSolver container.
Deleted CIteration container.
Deleted CInterface container.
Deleted CGeometry container.
Deleted CFreeFormDefBox class.
Deleted CSurfaceMovement class.
Deleted CVolumetricMovement class.
Deleted CConfig container.
Deleted nInst container.
Deleted COutput class.
-------------------------------------------------------------------------

------------------------- Exit Success (SU2_CFD) ------------------------


-------------------------------------------------------------------------
|    ___ _   _ ___                                                      |
|   / __| | | |_  )   Release 8.0.0 "Harrier"                           |
|   \__ \ |_| |/ /                                                      |
|   |___/\___//___|   Suite (Solution Exporting Code)                   |
|                                                                       |
-------------------------------------------------------------------------
| SU2 Project Website: https://su2code.github.io                        |
|                                                                       |
| The SU2 Project is maintained by the SU2 Foundation                   |
| (http://su2foundation.org)                                            |
-------------------------------------------------------------------------
| Copyright 2012-2023, SU2 Contributors                                 |
|                                                                       |
| SU2 is free software; you can redistribute it and/or                  |
| modify it under the terms of the GNU Lesser General Public            |
| License as published by the Free Software Foundation; either          |
| version 2.1 of the License, or (at your option) any later version.    |
|                                                                       |
| SU2 is distributed in the hope that it will be useful,                |
| but WITHOUT ANY WARRANTY; without even the implied warranty of        |
| MERCHANTABILITY or FITNESS FOR A PARTICULAR PURPOSE. See the GNU      |
| Lesser General Public License for more details.                       |
|                                                                       |
| You should have received a copy of the GNU Lesser General Public      |
| License along with SU2. If not, see <http://www.gnu.org/licenses/>.   |
-------------------------------------------------------------------------

----------------- Physical Case Definition ( Zone 0 ) -------------------
Input mesh file name: mesh_RAE2822_turb_deform.su2

-------------------- Output Information ( Zone 0 ) ----------------------
The tabular file format is CSV (.csv).
Flow variables file name: flow.

------------- Config File Boundary Information ( Zone 0 ) ---------------
+-----------------------------------------------------------------------+
|                        Marker Type|                        Marker Name|
+-----------------------------------------------------------------------+
|                          Far-field|                           FARFIELD|
+-----------------------------------------------------------------------+
|                     Heat flux wall|                            AIRFOIL|
+-----------------------------------------------------------------------+
Two dimensional problem.
13937 grid points before partitioning.
22842 volume elements before partitioning.
2 surface markers.
192 boundary elements in index 0 (Marker = AIRFOIL).
40 boundary elements in index 1 (Marker = FARFIELD).
Executing the partitioning functions.
Building the graph adjacency structure.
Calling ParMETIS... graph partitioning complete (831 edge cuts).
Distributing ParMETIS coloring.
Rebalancing vertices.
Rebalancing volume element connectivity.
Rebalancing markers and surface elements.
14875 vertices including ghost points. 
23674 interior elements including halo cells. 
18780 triangles.
4894 quadrilaterals.
Establishing MPI communication patterns.
Identify vertices.
Storing a mapping from global to local point index.

------------------------- Solution Postprocessing -----------------------
Reading and storing the solution from restart_flow.
Volume output fields: COORDINATES, SOLUTION
  Info: Ignoring the following screen output fields:
  RMS_DENSITY, RMS_NU_TILDE, LIFT, DRAG
Screen output fields: INNER_ITER
  Info: Ignoring the following history output groups:
  RMS_RES, AERO_COEFF
History output group(s): ITER
Warning: No (valid) fields chosen for convergence monitoring. Convergence monitoring inactive.
Warning: No (valid) fields chosen for time convergence monitoring. Time convergence monitoring inactive.
|Paraview                           |flow.vtu                           |
|Paraview surface                   |surface_flow.vtu                   |
|CSV file                           |surface_flow.csv                   |

------------------------- Finalize Solver -------------------------
Deleted CGeometry container.
Deleted CSolver class.
Deleted CConfig container.
Deleted COutput class.

Completed in 0.019450 seconds on 6 cores.

------------------------- Exit Success (SU2_SOL) ------------------------

