
-------------------------------------------------------------------------
|    ___ _   _ ___                                                      |
|   / __| | | |_  )   Release 8.0.0 "Harrier"                           |
|   \__ \ |_| |/ /                                                      |
|   |___/\___//___|   Suite (Computational Fluid Dynamics Code)         |
|                                                                       |
-------------------------------------------------------------------------
| SU2 Project Website: https://su2code.github.io                        |
|                                                                       |
| The SU2 Project is maintained by the SU2 Foundation                   |
| (http://su2foundation.org)                                            |
-------------------------------------------------------------------------
| Copyright 2012-2023, SU2 Contributors                                 |
|                                                                       |
| SU2 is free software; you can redistribute it and/or                  |
| modify it under the terms of the GNU Lesser General Public            |
| License as published by the Free Software Foundation; either          |
| version 2.1 of the License, or (at your option) any later version.    |
|                                                                       |
| SU2 is distributed in the hope that it will be useful,                |
| but WITHOUT ANY WARRANTY; without even the implied warranty of        |
| MERCHANTABILITY or FITNESS FOR A PARTICULAR PURPOSE. See the GNU      |
| Lesser General Public License for more details.                       |
|                                                                       |
| You should have received a copy of the GNU Lesser General Public      |
| License along with SU2. If not, see <http://www.gnu.org/licenses/>.   |
-------------------------------------------------------------------------

Parsing config file for zone 0

----------------- Physical Case Definition ( Zone 0 ) -------------------
Compressible RANS equations.
Turbulence model: Spalart-Allmaras-noft2
Hybrid RANS/LES: No Hybrid RANS/LES
Mach number: 0.734.
Angle of attack (AoA): 2.31 deg, and angle of sideslip (AoS): 0 deg.
Reynolds number: 6.5e+06. Reference length 1.
Fixed CL mode, target value: 0.824.
Reading and writing binary SU2 native restart files.
Read flow solution from: solution_flow.dat.
Dimensional simulation.
The reference area is 1 m^2.
The semi-span will be computed using the max y(3D) value.
The reference length is 1 m.
Reference origin for moment evaluation is (0.25, 0, 0).
Surface(s) where the force coefficients are evaluated: AIRFOIL.

Surface(s) plotted in the output file: AIRFOIL.
Surface(s) affected by the design variables: AIRFOIL.
Input mesh file name: mesh_RAE2822_turb_deform.su2

--------------- Space Numerical Integration ( Zone 0 ) ------------------
Jameson-Schmidt-Turkel scheme (2nd order in space) for the flow inviscid terms.
JST viscous coefficients (2nd & 4th): 0.5, 0.02.
The method includes a grid stretching correction (p = 0.3).
Scalar upwind solver for the turbulence model.
First order integration in space.
Average of gradients with correction (viscous flow terms).
Average of gradients with correction (viscous turbulence terms).
Gradient for viscous and source terms: inverse-distance weighted Least-Squares.

--------------- Time Numerical Integration  ( Zone 0 ) ------------------
Local time stepping (steady state simulation).
Euler implicit method for the flow equations.
FGMRES is used for solving the linear system.
Using a ILU(0) preconditioning.
Convergence criteria of the linear solver: 1e-06.
Max number of linear iterations: 10.
No CFL adaptation.
Courant-Friedrichs-Lewy number:       10
Euler implicit time integration for the turbulence model.

------------------ Convergence Criteria  ( Zone 0 ) ---------------------
Maximum number of solver subiterations: 5500.
Begin convergence monitoring at iteration 10.
Residual minimum value: 1e-12.
Cauchy series min. value: 1e-06.
Number of Cauchy elements: 100.
Begin windowed time average at iteration 0.

-------------------- Output Information ( Zone 0 ) ----------------------
File writing frequency: 
+------------------------------------+
|                     File| Frequency|
+------------------------------------+
|                  RESTART|     10000|
|                 PARAVIEW|     10000|
|         SURFACE_PARAVIEW|     10000|
|              SURFACE_CSV|     10000|
+------------------------------------+
Writing the convergence history file every 1 inner iterations.
Writing the screen convergence history every 1 inner iterations.
The tabular file format is CSV (.csv).
Convergence history file name: history_direct.
Forces breakdown file name: forces_breakdown.dat.
Surface file name: surface_flow.
Volume file name: flow.
Restart file name: restart_flow.dat.

------------- Config File Boundary Information ( Zone 0 ) ---------------
+-----------------------------------------------------------------------+
|                        Marker Type|                        Marker Name|
+-----------------------------------------------------------------------+
|                          Far-field|                           FARFIELD|
+-----------------------------------------------------------------------+
|                     Heat flux wall|                            AIRFOIL|
+-----------------------------------------------------------------------+

-------------------- Output Preprocessing ( Zone 0 ) --------------------

WARNING: SURFACE_PRESSURE_DROP can only be computed for at least 2 surfaces (outlet, inlet, ...)

Screen output fields: INNER_ITER, RMS_DENSITY, RMS_NU_TILDE, LIFT, DRAG
History output group(s): ITER, RMS_RES, AERO_COEFF
Convergence field(s): RMS_DENSITY
Warning: No (valid) fields chosen for time convergence monitoring. Time convergence monitoring inactive.
Volume output fields: COORDINATES, SOLUTION, PRIMITIVE

------------------- Geometry Preprocessing ( Zone 0 ) -------------------
Two dimensional problem.
13937 grid points before partitioning.
22842 volume elements before partitioning.
2 surface markers.
192 boundary elements in index 0 (Marker = AIRFOIL).
40 boundary elements in index 1 (Marker = FARFIELD).
Executing the partitioning functions.
Building the graph adjacency structure.
Calling ParMETIS... graph partitioning complete (831 edge cuts).
Distributing ParMETIS coloring.
Rebalancing vertices.
Rebalancing volume element connectivity.
Rebalancing markers and surface elements.
14875 vertices including ghost points. 
23674 interior elements including halo cells. 
18780 triangles.
4894 quadrilaterals.
Establishing MPI communication patterns.
Setting point connectivity.
Renumbering points (Reverse Cuthill McKee Ordering).
Recomputing point connectivity.
Setting element connectivity.
Checking the numerical grid orientation.
All volume elements are correctly orientend.
All surface elements are correctly orientend.
Identifying edges and vertices.
Setting the control volume structure.
Area of the computational grid: 32209.9.
Searching for the closest normal neighbors to the surfaces.
Storing a mapping from global to local point index.
Compute the surface curvature.
Max K: 210.308. Mean K: 8.42436. Standard deviation K: 27.5677.
Checking for periodicity.
Computing mesh quality statistics for the dual control volumes.
+--------------------------------------------------------------+
|           Mesh Quality Metric|        Minimum|        Maximum|
+--------------------------------------------------------------+
|    Orthogonality Angle (deg.)|        74.4185|        89.9997|
|     CV Face Area Aspect Ratio|        1.00107|        3359.09|
|           CV Sub-Volume Ratio|        1.00066|        1220.28|
+--------------------------------------------------------------+
Finding max control volume width.
Communicating number of neighbors.
Wetted area = 2.02126 m.
Area projection in the x-plane = 0.128184 m, y-plane = 0.995873 m.
Max. coordinate in the x-direction = 1 m, y-direction = 0.0614727 m.
Min. coordinate in the x-direction = 0 m, y-direction = -0.0627301 m.
Computing wall distances.

-------------------- Solver Preprocessing ( Zone 0 ) --------------------
WARNING: AoA in the solution file (2.76604 deg.) +
         AoA offset in mesh file (0 deg.) = 2.76604 deg.
WARNING: SU2 will use the dCD/dCL provided in the direct solution file: 0.0198654.
WARNING: SU2 will use the dCMz/dCL provided in the direct solution file: 0.0104965.
Viscous flow: Computing pressure using the ideal gas law
based on the free-stream temperature and a density computed
from the Reynolds number.
Force coefficients computed using free-stream values.

-- Models:
+------------------------------------------------------------------------------+
|          Viscosity Model|        Conductivity Model|              Fluid Model|
+------------------------------------------------------------------------------+
|               SUTHERLAND|          CONSTANT_PRANDTL|             STANDARD_AIR|
+------------------------------------------------------------------------------+
-- Fluid properties:
+------------------------------------------------------------------------------+
|                  Name|    Dim. value|    Ref. value|      Unit|Non-dim. value|
+------------------------------------------------------------------------------+
|        Ref. Viscosity|     1.716e-05|             1|   N.s/m^2|     1.716e-05|
|      Sutherland Temp.|        273.15|             1|         K|        273.15|
|     Sutherland Const.|         110.4|             1|         K|         110.4|
+------------------------------------------------------------------------------+
|        Prandtl (Lam.)|             -|             -|         -|          0.71|
|       Prandtl (Turb.)|             -|             -|         -|           0.9|
+------------------------------------------------------------------------------+
|          Gas Constant|       287.058|             1|  N.m/kg.K|       287.058|
|      Spec. Heat Ratio|             -|             -|         -|           1.4|
+------------------------------------------------------------------------------+
-- Initial and free-stream conditions:
+------------------------------------------------------------------------------+
|                  Name|    Dim. value|    Ref. value|      Unit|Non-dim. value|
+------------------------------------------------------------------------------+
|       Static Pressure|         38515|             1|        Pa|         38515|
|               Density|      0.465631|             1|    kg/m^3|      0.465631|
|           Temperature|        288.15|             1|         K|        288.15|
|          Total Energy|        237984|             1|   m^2/s^2|        237984|
|            Velocity-X|       249.487|             1|       m/s|       249.487|
|            Velocity-Y|       12.0537|             1|       m/s|       12.0537|
|    Velocity Magnitude|       249.778|             1|       m/s|       249.778|
+------------------------------------------------------------------------------+
|             Viscosity|    1.7893e-05|             1|   N.s/m^2|    1.7893e-05|
|          Conductivity|             -|             1|   W/m^2.K|             -|
|     Turb. Kin. Energy|       233.959|             1|   m^2/s^2|       233.959|
|     Spec. Dissipation|        608834|             1|       1/s|        608834|
+------------------------------------------------------------------------------+
|           Mach Number|             -|             -|         -|         0.734|
|       Reynolds Number|             -|             -|         -|       6.5e+06|
+------------------------------------------------------------------------------+
Initialize Jacobian structure (Navier-Stokes). MG level: 0.
Initialize Jacobian structure (SA model).

------------------- Numerics Preprocessing ( Zone 0 ) -------------------

----------------- Integration Preprocessing ( Zone 0 ) ------------------

------------------- Iteration Preprocessing ( Zone 0 ) ------------------
Euler/Navier-Stokes/RANS fluid iteration.

------------------------------ Begin Solver -----------------------------

Simulation Run using the Single-zone Driver
WARNING: SU2 was not compiled for an AVX-capable architecture. Performance could be better,
         see https://su2code.github.io/docs_v7/Build-SU2-Linux-MacOS/#compiler-optimizations
+----------------------------------------------------------------+
|  Inner_Iter|    rms[Rho]|     rms[nu]|          CL|          CD|
+----------------------------------------------------------------+
|           0|   -4.355984|   -5.759074|    0.824341|    0.011703|
|           1|   -4.409683|   -5.857204|    0.824510|    0.011733|
|           2|   -4.466561|   -5.982180|    0.824554|    0.011755|
|           3|   -4.512712|   -6.128731|    0.824523|    0.011769|
|           4|   -4.547910|   -6.273496|    0.824464|    0.011774|
|           5|   -4.571227|   -6.370413|    0.824411|    0.011774|
|           6|   -4.582988|   -6.397948|    0.824377|    0.011773|
|           7|   -4.585788|   -6.385507|    0.824367|    0.011774|
|           8|   -4.582534|   -6.359369|    0.824378|    0.011780|
|           9|   -4.575216|   -6.327632|    0.824405|    0.011791|
|          10|   -4.565107|   -6.295354|    0.824443|    0.011808|
|          11|   -4.553308|   -6.268263|    0.824488|    0.011831|
|          12|   -4.540924|   -6.251237|    0.824537|    0.011858|
|          13|   -4.528905|   -6.247405|    0.824585|    0.011889|
|          14|   -4.517899|   -6.257363|    0.824629|    0.011922|
|          15|   -4.508243|   -6.278969|    0.824665|    0.011958|
|          16|   -4.500072|   -6.306569|    0.824691|    0.011994|
|          17|   -4.493429|   -6.330557|    0.824704|    0.012030|
|          18|   -4.488305|   -6.340211|    0.824704|    0.012065|
|          19|   -4.484630|   -6.330529|    0.824691|    0.012097|
|          20|   -4.482241|   -6.307069|    0.824665|    0.012127|
|          21|   -4.480883|   -6.280005|    0.824629|    0.012154|
|          22|   -4.480260|   -6.257315|    0.824585|    0.012177|
|          23|   -4.480101|   -6.242878|    0.824534|    0.012197|
|          24|   -4.480221|   -6.237721|    0.824480|    0.012213|
|          25|   -4.480543|   -6.240942|    0.824425|    0.012227|
|          26|   -4.481068|   -6.250413|    0.824370|    0.012237|
|          27|   -4.481832|   -6.263161|    0.824317|    0.012244|
|          28|   -4.482852|   -6.275850|    0.824267|    0.012249|
|          29|   -4.484093|   -6.285571|    0.824221|    0.012252|
|          30|   -4.485447|   -6.290718|    0.824179|    0.012253|
|          31|   -4.486749|   -6.291448|    0.824141|    0.012252|
|          32|   -4.487791|   -6.289337|    0.824105|    0.012250|
|          33|   -4.488357|   -6.286546|    0.824072|    0.012247|
|          34|   -4.488251|   -6.285050|    0.824041|    0.012242|
|          35|   -4.487331|   -6.286258|    0.824010|    0.012237|
|          36|   -4.485528|   -6.290940|    0.823978|    0.012231|
|          37|   -4.482851|   -6.299315|    0.823946|    0.012225|
|          38|   -4.479385|   -6.311163|    0.823912|    0.012219|
|          39|   -4.475265|   -6.325906|    0.823876|    0.012212|
|          40|   -4.470659|   -6.342677|    0.823838|    0.012205|
|          41|   -4.465740|   -6.360363|    0.823797|    0.012198|
|          42|   -4.460671|   -6.377684|    0.823754|    0.012191|
|          43|   -4.455584|   -6.393307|    0.823709|    0.012184|
|          44|   -4.450578|   -6.406043|    0.823663|    0.012177|
|          45|   -4.445706|   -6.415048|    0.823616|    0.012169|
|          46|   -4.440975|   -6.419993|    0.823568|    0.012162|
|          47|   -4.436351|   -6.421107|    0.823521|    0.012155|
|          48|   -4.431764|   -6.419083|    0.823475|    0.012147|
|          49|   -4.427128|   -6.414879|    0.823431|    0.012140|
|          50|   -4.422348|   -6.409502|    0.823389|    0.012132|
|          51|   -4.417347|   -6.403860|    0.823352|    0.012123|
|          52|   -4.412076|   -6.398678|    0.823318|    0.012115|
|          53|   -4.406522|   -6.394477|    0.823289|    0.012106|
|          54|   -4.400715|   -6.391586|    0.823265|    0.012097|
|          55|   -4.394720|   -6.390170|    0.823246|    0.012088|
|          56|   -4.388627|   -6.390274|    0.823233|    0.012078|
|          57|   -4.382537|   -6.391866|    0.823225|    0.012068|
|          58|   -4.376548|   -6.394867|    0.823222|    0.012058|
|          59|   -4.370747|   -6.399143|    0.823224|    0.012048|
|          60|   -4.365197|   -6.404527|    0.823231|    0.012038|
|          61|   -4.359939|   -6.410832|    0.823242|    0.012028|
|          62|   -4.354988|   -6.417843|    0.823256|    0.012018|
|          63|   -4.350341|   -6.425319|    0.823272|    0.012008|
|          64|   -4.345981|   -6.432982|    0.823291|    0.011998|
|          65|   -4.341883|   -6.440538|    0.823312|    0.011988|
|          66|   -4.338020|   -6.447710|    0.823333|    0.011979|
|          67|   -4.334372|   -6.454256|    0.823355|    0.011969|
|          68|   -4.330923|   -6.460010|    0.823377|    0.011960|
|          69|   -4.327670|   -6.464900|    0.823398|    0.011951|
|          70|   -4.324616|   -6.468958|    0.823419|    0.011943|
|          71|   -4.321771|   -6.472311|    0.823439|    0.011934|
|          72|   -4.319149|   -6.475133|    0.823457|    0.011926|
|          73|   -4.316765|   -6.477617|    0.823474|    0.011919|
|          74|   -4.314629|   -6.479932|    0.823490|    0.011911|
|          75|   -4.312751|   -6.482198|    0.823505|    0.011904|
|          76|   -4.311132|   -6.484467|    0.823518|    0.011897|
|          77|   -4.309766|   -6.486726|    0.823530|    0.011891|
|          78|   -4.308643|   -6.488910|    0.823540|    0.011884|
|          79|   -4.307747|   -6.490926|    0.823550|    0.011879|
|          80|   -4.307057|   -6.492687|    0.823558|    0.011873|
|          81|   -4.306550|   -6.494130|    0.823566|    0.011868|
|          82|   -4.306200|   -6.495232|    0.823573|    0.011863|
|          83|   -4.305981|   -6.496020|    0.823579|    0.011858|
|          84|   -4.305868|   -6.496565|    0.823584|    0.011853|
|          85|   -4.305838|   -6.496972|    0.823589|    0.011849|
|          86|   -4.305870|   -6.497354|    0.823593|    0.011845|
|          87|   -4.305947|   -6.497836|    0.823597|    0.011842|
|          88|   -4.306059|   -6.498527|    0.823601|    0.011838|
|          89|   -4.306201|   -6.499504|    0.823604|    0.011835|
|          90|   -4.306376|   -6.500827|    0.823608|    0.011832|
|          91|   -4.306594|   -6.502519|    0.823611|    0.011830|
|          92|   -4.306875|   -6.504586|    0.823615|    0.011828|
|          93|   -4.307243|   -6.507014|    0.823619|    0.011826|
|          94|   -4.307732|   -6.509780|    0.823624|    0.011824|
|          95|   -4.308379|   -6.512852|    0.823629|    0.011823|
|          96|   -4.309222|   -6.516203|    0.823635|    0.011822|
|          97|   -4.310301|   -6.519802|    0.823642|    0.011822|
|          98|   -4.311653|   -6.523625|    0.823649|    0.011822|
|          99|   -4.313309|   -6.527656|    0.823658|    0.011823|
|         100|   -4.315292|   -6.531884|    0.823667|    0.011824|
|         101|   -4.317614|   -6.536306|    0.823677|    0.011849|
+-----------------------------------------------------------------------+
|Fixed CL Mode                           |Value                         |
+-----------------------------------------------------------------------+
|Current CL                              |0.823677                      |
|Target CL                               |0.824                         |
|Previous AOA                            |2.76604                       |
|Changed AoA by                          |0.00166335                    |
+-----------------------------------------------------------------------+
+----------------------------------------------------------------+
|  Inner_Iter|    rms[Rho]|     rms[nu]|          CL|          CD|
+----------------------------------------------------------------+
|         102|   -2.972232|   -6.523884|    0.823689|    0.011851|
|         103|   -3.358288|   -6.537370|    0.823701|    0.011854|
|         104|   -3.607590|   -6.544701|    0.823714|    0.011857|
|         105|   -3.687593|   -6.550975|    0.823728|    0.011860|
|         106|   -3.738126|   -6.557013|    0.823742|    0.011864|
|         107|   -3.801588|   -6.562978|    0.823756|    0.011868|
|         108|   -3.877104|   -6.568935|    0.823771|    0.011873|
|         109|   -3.950419|   -6.574898|    0.823786|    0.011878|
|         110|   -4.006837|   -6.580860|    0.823800|    0.011883|
|         111|   -4.043130|   -6.586809|    0.823814|    0.011889|
|         112|   -4.064897|   -6.592734|    0.823828|    0.011895|
|         113|   -4.077424|   -6.598637|    0.823841|    0.011901|
|         114|   -4.084074|   -6.604522|    0.823853|    0.011907|
|         115|   -4.088329|   -6.610378|    0.823864|    0.011913|
|         116|   -4.093793|   -6.616176|    0.823875|    0.011919|
|         117|   -4.102776|   -6.621870|    0.823884|    0.011926|
|         118|   -4.115515|   -6.627411|    0.823892|    0.011932|
|         119|   -4.130503|   -6.632761|    0.823898|    0.011938|
|         120|   -4.145578|   -6.637891|    0.823904|    0.011944|
|         121|   -4.159152|   -6.642785|    0.823909|    0.011950|
|         122|   -4.170891|   -6.647427|    0.823913|    0.011956|
|         123|   -4.181440|   -6.651811|    0.823915|    0.011961|
|         124|   -4.191630|   -6.655932|    0.823917|    0.011967|
|         125|   -4.201842|   -6.659798|    0.823919|    0.011972|
|         126|   -4.211868|   -6.663433|    0.823919|    0.011977|
|         127|   -4.221124|   -6.666873|    0.823920|    0.011982|
|         128|   -4.228968|   -6.670168|    0.823920|    0.011987|
|         129|   -4.234921|   -6.673360|    0.823920|    0.011992|
|         130|   -4.238777|   -6.676502|    0.823920|    0.011997|
|         131|   -4.240621|   -6.679640|    0.823920|    0.012002|
|         132|   -4.240801|   -6.682819|    0.823920|    0.012006|
|         133|   -4.239855|   -6.686073|    0.823921|    0.012011|
|         134|   -4.238388|   -6.689412|    0.823921|    0.012016|
|         135|   -4.236943|   -6.692834|    0.823923|    0.012020|
|         136|   -4.235904|   -6.696329|    0.823924|    0.012025|
|         137|   -4.235453|   -6.699873|    0.823927|    0.012029|
|         138|   -4.235570|   -6.703441|    0.823929|    0.012034|
|         139|   -4.236083|   -6.706983|    0.823932|    0.012039|
|         140|   -4.236721|   -6.710451|    0.823936|    0.012044|
|         141|   -4.237182|   -6.713793|    0.823940|    0.012048|
|         142|   -4.237209|   -6.716951|    0.823944|    0.012053|
|         143|   -4.236646|   -6.719888|    0.823949|    0.012058|
|         144|   -4.235472|   -6.722551|    0.823954|    0.012063|
|         145|   -4.233793|   -6.724912|    0.823959|    0.012067|
|         146|   -4.231804|   -6.726956|    0.823964|    0.012072|
|         147|   -4.229734|   -6.728671|    0.823969|    0.012077|
|         148|   -4.227786|   -6.730071|    0.823974|    0.012081|
|         149|   -4.226100|   -6.731194|    0.823980|    0.012085|
|         150|   -4.224739|   -6.732074|    0.823985|    0.012090|
|         151|   -4.223692|   -6.732747|    0.823990|    0.012094|
|         152|   -4.222897|   -6.733274|    0.823995|    0.012098|
|         153|   -4.222266|   -6.733718|    0.824000|    0.012102|
|         154|   -4.221712|   -6.734148|    0.824005|    0.012105|
|         155|   -4.221168|   -6.734640|    0.824010|    0.012109|
|         156|   -4.220596|   -6.735227|    0.824015|    0.012112|
|         157|   -4.219993|   -6.735973|    0.824020|    0.012115|
|         158|   -4.219376|   -6.736918|    0.824025|    0.012118|
|         159|   -4.218782|   -6.738107|    0.824030|    0.012120|
|         160|   -4.218251|   -6.739565|    0.824035|    0.012122|
|         161|   -4.217820|   -6.741264|    0.824040|    0.012124|
|         162|   -4.217517|   -6.743249|    0.824045|    0.012126|
|         163|   -4.217359|   -6.745544|    0.824050|    0.012128|
|         164|   -4.217353|   -6.748126|    0.824056|    0.012129|
|         165|   -4.217498|   -6.750984|    0.824062|    0.012130|
|         166|   -4.217790|   -6.754104|    0.824067|    0.012131|
|         167|   -4.218220|   -6.757483|    0.824073|    0.012131|
|         168|   -4.218778|   -6.761100|    0.824079|    0.012132|
|         169|   -4.219454|   -6.764937|    0.824086|    0.012132|
|         170|   -4.220237|   -6.768984|    0.824092|    0.012132|
|         171|   -4.221114|   -6.773236|    0.824098|    0.012131|
|         172|   -4.222074|   -6.777693|    0.824105|    0.012131|
|         173|   -4.223099|   -6.782351|    0.824111|    0.012130|
|         174|   -4.224172|   -6.787203|    0.824118|    0.012129|
|         175|   -4.225276|   -6.792243|    0.824124|    0.012128|
|         176|   -4.226390|   -6.797465|    0.824130|    0.012127|
|         177|   -4.227497|   -6.802863|    0.824136|    0.012125|
|         178|   -4.228579|   -6.808427|    0.824142|    0.012124|
|         179|   -4.229624|   -6.814137|    0.824148|    0.012122|
|         180|   -4.230623|   -6.819961|    0.824153|    0.012120|
|         181|   -4.231573|   -6.825861|    0.824157|    0.012117|
|         182|   -4.232477|   -6.831795|    0.824162|    0.012115|
|         183|   -4.233348|   -6.837706|    0.824165|    0.012113|
|         184|   -4.234205|   -6.843533|    0.824169|    0.012110|
|         185|   -4.235075|   -6.849225|    0.824171|    0.012107|
|         186|   -4.235991|   -6.854730|    0.824173|    0.012104|
|         187|   -4.236995|   -6.859998|    0.824175|    0.012101|
|         188|   -4.238132|   -6.864985|    0.824176|    0.012097|
|         189|   -4.239450|   -6.869647|    0.824176|    0.012094|
|         190|   -4.241001|   -6.873952|    0.824176|    0.012090|
|         191|   -4.242836|   -6.877882|    0.824175|    0.012087|
|         192|   -4.245003|   -6.881433|    0.824174|    0.012083|
|         193|   -4.247546|   -6.884623|    0.824172|    0.012079|
|         194|   -4.250504|   -6.887486|    0.824170|    0.012075|
|         195|   -4.253910|   -6.890058|    0.824168|    0.012071|
|         196|   -4.257785|   -6.892400|    0.824165|    0.012066|
|         197|   -4.262141|   -6.894589|    0.824161|    0.012062|
|         198|   -4.266979|   -6.896705|    0.824158|    0.012058|
|         199|   -4.272286|   -6.898820|    0.824154|    0.012053|
|         200|   -4.278035|   -6.900999|    0.824150|    0.012049|
|         201|   -4.284183|   -6.903311|    0.824146|    0.012034|
+-----------------------------------------------------------------------+
|Fixed CL Mode                           |Value                         |
+-----------------------------------------------------------------------+
|Current CL                              |0.824146                      |
|Target CL                               |0.824                         |
|Previous AOA                            |2.7677                        |
|Changed AoA by                          |-0.000749638                  |
+-----------------------------------------------------------------------+
+----------------------------------------------------------------+
|  Inner_Iter|    rms[Rho]|     rms[nu]|          CL|          CD|
+----------------------------------------------------------------+
|         202|   -3.316412|   -6.885206|    0.824142|    0.012029|
|         203|   -3.691429|   -6.897303|    0.824137|    0.012025|
|         204|   -3.910705|   -6.902925|    0.824133|    0.012020|
|         205|   -3.973013|   -6.907652|    0.824129|    0.012016|
|         206|   -4.014286|   -6.912368|    0.824125|    0.012012|
|         207|   -4.066921|   -6.917262|    0.824121|    0.012008|
|         208|   -4.127520|   -6.922361|    0.824117|    0.012004|
|         209|   -4.183974|   -6.927647|    0.824113|    0.011999|
|         210|   -4.226462|   -6.933070|    0.824110|    0.011996|
|         211|   -4.253933|   -6.938541|    0.824107|    0.011992|
|         212|   -4.270491|   -6.943964|    0.824104|    0.011988|
|         213|   -4.279820|   -6.949247|    0.824102|    0.011985|
|         214|   -4.284411|   -6.954307|    0.824100|    0.011982|
|         215|   -4.286648|   -6.959057|    0.824099|    0.011978|
|         216|   -4.288791|   -6.963414|    0.824098|    0.011975|
|         217|   -4.292240|   -6.967295|    0.824097|    0.011973|
|         218|   -4.297158|   -6.970625|    0.824097|    0.011970|
|         219|   -4.302779|   -6.973340|    0.824097|    0.011968|
|         220|   -4.308096|   -6.975407|    0.824098|    0.011966|
|         221|   -4.312492|   -6.976816|    0.824100|    0.011964|
|         222|   -4.315973|   -6.977574|    0.824101|    0.011963|
|         223|   -4.318964|   -6.977713|    0.824104|    0.011961|
|         224|   -4.321954|   -6.977276|    0.824107|    0.011960|
|         225|   -4.325257|   -6.976322|    0.824110|    0.011959|
|         226|   -4.328980|   -6.974937|    0.824114|    0.011958|
|         227|   -4.333103|   -6.973219|    0.824118|    0.011958|
|         228|   -4.337579|   -6.971275|    0.824123|    0.011958|
|         229|   -4.342380|   -6.969213|    0.824128|    0.011958|
|         230|   -4.347509|   -6.967140|    0.824134|    0.011958|
|         231|   -4.352998|   -6.965158|    0.824140|    0.011958|
|         232|   -4.358913|   -6.963353|    0.824147|    0.011959|
|         233|   -4.365355|   -6.961802|    0.824154|    0.011960|
|         234|   -4.372447|   -6.960565|    0.824162|    0.011961|
|         235|   -4.380318|   -6.959690|    0.824169|    0.011962|
|         236|   -4.389069|   -6.959213|    0.824177|    0.011964|
|         237|   -4.398752|   -6.959157|    0.824186|    0.011965|
|         238|   -4.409356|   -6.959530|    0.824194|    0.011967|
|         239|   -4.420805|   -6.960318|    0.824203|    0.011969|
|         240|   -4.432955|   -6.961488|    0.824212|    0.011971|
|         241|   -4.445617|   -6.962998|    0.824221|    0.011973|
|         242|   -4.458573|   -6.964794|    0.824230|    0.011976|
|         243|   -4.471611|   -6.966816|    0.824239|    0.011978|
|         244|   -4.484554|   -6.968995|    0.824248|    0.011981|
|         245|   -4.497280|   -6.971255|    0.824256|    0.011983|
|         246|   -4.509731|   -6.973508|    0.824265|    0.011986|
|         247|   -4.521898|   -6.975666|    0.824273|    0.011989|
|         248|   -4.533796|   -6.977643|    0.824281|    0.011992|
|         249|   -4.545431|   -6.979360|    0.824289|    0.011994|
|         250|   -4.556782|   -6.980751|    0.824296|    0.011997|
|         251|   -4.567782|   -6.981766|    0.824303|    0.012000|
|         252|   -4.578324|   -6.982374|    0.824309|    0.012003|
|         253|   -4.588274|   -6.982570|    0.824314|    0.012006|
|         254|   -4.597498|   -6.982376|    0.824319|    0.012009|
|         255|   -4.605878|   -6.981829|    0.824323|    0.012011|
|         256|   -4.613336|   -6.980988|    0.824326|    0.012014|
|         257|   -4.619840|   -6.979925|    0.824328|    0.012017|
|         258|   -4.625406|   -6.978725|    0.824330|    0.012019|
|         259|   -4.630085|   -6.977474|    0.824331|    0.012022|
|         260|   -4.633950|   -6.976266|    0.824330|    0.012024|
|         261|   -4.637084|   -6.975187|    0.824330|    0.012027|
|         262|   -4.639571|   -6.974323|    0.824328|    0.012029|
|         263|   -4.641486|   -6.973744|    0.824325|    0.012031|
|         264|   -4.642896|   -6.973506|    0.824322|    0.012033|
|         265|   -4.643859|   -6.973650|    0.824318|    0.012035|
|         266|   -4.644431|   -6.974202|    0.824313|    0.012037|
|         267|   -4.644665|   -6.975168|    0.824307|    0.012039|
|         268|   -4.644611|   -6.976533|    0.824301|    0.012041|
|         269|   -4.644320|   -6.978261|    0.824295|    0.012042|
|         270|   -4.643840|   -6.980295|    0.824288|    0.012044|
|         271|   -4.643220|   -6.982560|    0.824281|    0.012045|
|         272|   -4.642502|   -6.984965|    0.824273|    0.012046|
|         273|   -4.641727|   -6.987404|    0.824265|    0.012047|
|         274|   -4.640929|   -6.989764|    0.824257|    0.012048|
|         275|   -4.640141|   -6.991928|    0.824249|    0.012049|
|         276|   -4.639391|   -6.993780|    0.824241|    0.012050|
|         277|   -4.638705|   -6.995213|    0.824233|    0.012051|
|         278|   -4.638105|   -6.996143|    0.824225|    0.012051|
|         279|   -4.637612|   -6.996501|    0.824218|    0.012052|
|         280|   -4.637244|   -6.996242|    0.824210|    0.012052|
|         281|   -4.637017|   -6.995355|    0.824203|    0.012053|
|         282|   -4.636945|   -6.993862|    0.824197|    0.012053|
|         283|   -4.637037|   -6.991818|    0.824191|    0.012053|
|         284|   -4.637303|   -6.989305|    0.824185|    0.012053|
|         285|   -4.637748|   -6.986427|    0.824180|    0.012053|
|         286|   -4.638375|   -6.983307|    0.824175|    0.012053|
|         287|   -4.639184|   -6.980071|    0.824170|    0.012052|
|         288|   -4.640171|   -6.976846|    0.824167|    0.012052|
|         289|   -4.641333|   -6.973756|    0.824163|    0.012051|
|         290|   -4.642660|   -6.970912|    0.824160|    0.012051|
|         291|   -4.644145|   -6.968412|    0.824158|    0.012050|
|         292|   -4.645777|   -6.966340|    0.824156|    0.012049|
|         293|   -4.647544|   -6.964759|    0.824154|    0.012049|
|         294|   -4.649434|   -6.963720|    0.824153|    0.012048|
|         295|   -4.651436|   -6.963256|    0.824152|    0.012047|
|         296|   -4.653537|   -6.963385|    0.824152|    0.012046|
|         297|   -4.655727|   -6.964111|    0.824152|    0.012044|
|         298|   -4.657996|   -6.965423|    0.824152|    0.012043|
|         299|   -4.660335|   -6.967291|    0.824153|    0.012042|
|         300|   -4.662736|   -6.969683|    0.824153|    0.012040|
|         301|   -4.665194|   -6.972549|    0.824154|    0.012028|
+-----------------------------------------------------------------------+
|Fixed CL Mode                           |Value                         |
+-----------------------------------------------------------------------+
|Current CL                              |0.824154                      |
|Target CL                               |0.824                         |
|Previous AOA                            |2.76695                       |
|Changed AoA by                          |-0.00076614                   |
+-----------------------------------------------------------------------+
+----------------------------------------------------------------+
|  Inner_Iter|    rms[Rho]|     rms[nu]|          CL|          CD|
+----------------------------------------------------------------+
|         302|   -3.308571|   -6.947391|    0.824155|    0.012026|
|         303|   -3.690535|   -6.964648|    0.824157|    0.012025|
|         304|   -3.928373|   -6.972769|    0.824158|    0.012023|
|         305|   -4.003587|   -6.979202|    0.824160|    0.012021|
|         306|   -4.054520|   -6.985067|    0.824162|    0.012020|
|         307|   -4.119742|   -6.990595|    0.824163|    0.012018|
|         308|   -4.198431|   -6.995844|    0.824165|    0.012016|
|         309|   -4.277664|   -7.000844|    0.824167|    0.012014|
|         310|   -4.342994|   -7.005606|    0.824169|    0.012012|
|         311|   -4.389077|   -7.010121|    0.824171|    0.012010|
|         312|   -4.419000|   -7.014378|    0.824173|    0.012008|
|         313|   -4.436750|   -7.018398|    0.824176|    0.012006|
|         314|   -4.445592|   -7.022221|    0.824178|    0.012004|
|         315|   -4.449836|   -7.025882|    0.824180|    0.012002|
|         316|   -4.454268|   -7.029394|    0.824182|    0.012001|
|         317|   -4.462138|   -7.032761|    0.824185|    0.011999|
|         318|   -4.474194|   -7.035995|    0.824187|    0.011997|
|         319|   -4.489108|   -7.039121|    0.824189|    0.011995|
|         320|   -4.504702|   -7.042177|    0.824192|    0.011993|
|         321|   -4.519286|   -7.045196|    0.824194|    0.011991|
|         322|   -4.532418|   -7.048204|    0.824197|    0.011989|
|         323|   -4.544688|   -7.051221|    0.824199|    0.011988|
|         324|   -4.556915|   -7.054266|    0.824202|    0.011986|
|         325|   -4.569494|   -7.057353|    0.824204|    0.011984|
|         326|   -4.582233|   -7.060499|    0.824207|    0.011983|
|         327|   -4.594566|   -7.063729|    0.824210|    0.011981|
|         328|   -4.605859|   -7.067068|    0.824212|    0.011980|
|         329|   -4.615622|   -7.070541|    0.824215|    0.011978|
|         330|   -4.623601|   -7.074172|    0.824218|    0.011977|
|         331|   -4.629790|   -7.077983|    0.824221|    0.011976|
|         332|   -4.634430|   -7.081984|    0.824224|    0.011975|
|         333|   -4.637967|   -7.086183|    0.824227|    0.011974|
|         334|   -4.640952|   -7.090579|    0.824230|    0.011973|
|         335|   -4.643920|   -7.095164|    0.824233|    0.011972|
|         336|   -4.647266|   -7.099921|    0.824236|    0.011971|
|         337|   -4.651179|   -7.104830|    0.824238|    0.011970|
|         338|   -4.655626|   -7.109865|    0.824241|    0.011970|
|         339|   -4.660381|   -7.114999|    0.824244|    0.011969|
|         340|   -4.665082|   -7.120197|    0.824247|    0.011969|
|         341|   -4.669312|   -7.125426|    0.824250|    0.011968|
|         342|   -4.672698|   -7.130656|    0.824253|    0.011968|
|         343|   -4.675003|   -7.135855|    0.824256|    0.011968|
|         344|   -4.676192|   -7.140990|    0.824258|    0.011968|
|         345|   -4.676428|   -7.146033|    0.824261|    0.011968|
|         346|   -4.676027|   -7.150954|    0.824263|    0.011968|
|         347|   -4.675360|   -7.155724|    0.824265|    0.011968|
|         348|   -4.674769|   -7.160320|    0.824267|    0.011968|
|         349|   -4.674499|   -7.164714|    0.824269|    0.011969|
|         350|   -4.674674|   -7.168884|    0.824271|    0.011969|
|         351|   -4.675304|   -7.172808|    0.824272|    0.011970|
|         352|   -4.676316|   -7.176466|    0.824273|    0.011970|
|         353|   -4.677592|   -7.179848|    0.824274|    0.011971|
|         354|   -4.679014|   -7.182943|    0.824275|    0.011971|
|         355|   -4.680491|   -7.185753|    0.824275|    0.011972|
|         356|   -4.681981|   -7.188277|    0.824275|    0.011973|
|         357|   -4.683490|   -7.190526|    0.824274|    0.011974|
|         358|   -4.685067|   -7.192518|    0.824273|    0.011974|
|         359|   -4.686782|   -7.194281|    0.824272|    0.011975|
|         360|   -4.688714|   -7.195851|    0.824271|    0.011976|
|         361|   -4.690936|   -7.197271|    0.824269|    0.011977|
|         362|   -4.693503|   -7.198593|    0.824267|    0.011978|
|         363|   -4.696453|   -7.199870|    0.824264|    0.011979|
|         364|   -4.699805|   -7.201161|    0.824261|    0.011980|
|         365|   -4.703567|   -7.202526|    0.824258|    0.011981|
|         366|   -4.707737|   -7.204024|    0.824255|    0.011982|
|         367|   -4.712309|   -7.205716|    0.824251|    0.011983|
|         368|   -4.717275|   -7.207654|    0.824247|    0.011984|
|         369|   -4.722629|   -7.209891|    0.824242|    0.011985|
|         370|   -4.728363|   -7.212473|    0.824238|    0.011986|
|         371|   -4.734467|   -7.215439|    0.824233|    0.011987|
|         372|   -4.740930|   -7.218821|    0.824228|    0.011988|
|         373|   -4.747735|   -7.222640|    0.824223|    0.011989|
|         374|   -4.754861|   -7.226908|    0.824218|    0.011990|
|         375|   -4.762279|   -7.231623|    0.824213|    0.011991|
|         376|   -4.769956|   -7.236773|    0.824208|    0.011991|
|         377|   -4.777852|   -7.242334|    0.824203|    0.011992|
|         378|   -4.785921|   -7.248265|    0.824198|    0.011993|
|         379|   -4.794114|   -7.254515|    0.824194|    0.011994|
|         380|   -4.802374|   -7.261017|    0.824189|    0.011995|
|         381|   -4.810643|   -7.267690|    0.824184|    0.011996|
|         382|   -4.818859|   -7.274424|    0.824180|    0.011997|
|         383|   -4.826955|   -7.281128|    0.824175|    0.011997|
|         384|   -4.834865|   -7.287693|    0.824171|    0.011998|
|         385|   -4.842523|   -7.294010|    0.824167|    0.011999|
|         386|   -4.849863|   -7.299971|    0.824163|    0.011999|
|         387|   -4.856823|   -7.305477|    0.824160|    0.012000|
|         388|   -4.863345|   -7.310445|    0.824157|    0.012000|
|         389|   -4.869379|   -7.314813|    0.824153|    0.012001|
|         390|   -4.874882|   -7.318540|    0.824150|    0.012001|
|         391|   -4.879819|   -7.321613|    0.824148|    0.012002|
|         392|   -4.884166|   -7.324045|    0.824145|    0.012002|
|         393|   -4.887911|   -7.325868|    0.824143|    0.012002|
|         394|   -4.891051|   -7.327150|    0.824141|    0.012003|
|         395|   -4.893592|   -7.327982|    0.824139|    0.012003|
|         396|   -4.895550|   -7.328466|    0.824137|    0.012003|
|         397|   -4.896951|   -7.328712|    0.824135|    0.012003|
|         398|   -4.897825|   -7.328829|    0.824134|    0.012003|
|         399|   -4.898209|   -7.328924|    0.824132|    0.012003|
|         400|   -4.898143|   -7.329096|    0.824131|    0.012003|
|         401|   -4.897671|   -7.329432|    0.824130|    0.011993|
+-----------------------------------------------------------------------+
|Fixed CL Mode                           |Value                         |
+-----------------------------------------------------------------------+
|Current CL                              |0.82413                       |
|Target CL                               |0.824                         |
|Previous AOA                            |2.76618                       |
|Changed AoA by                          |-0.000654528                  |
+-----------------------------------------------------------------------+
+----------------------------------------------------------------+
|  Inner_Iter|    rms[Rho]|     rms[nu]|          CL|          CD|
+----------------------------------------------------------------+
|         402|   -3.377377|   -7.241273|    0.824129|    0.011993|
|         403|   -3.761142|   -7.283163|    0.824128|    0.011993|
|         404|   -4.002591|   -7.298039|    0.824127|    0.011993|
|         405|   -4.079175|   -7.307298|    0.824126|    0.011993|
|         406|   -4.131040|   -7.314612|    0.824126|    0.011992|
|         407|   -4.198244|   -7.320888|    0.824125|    0.011992|
|         408|   -4.280507|   -7.326466|    0.824125|    0.011991|
|         409|   -4.364833|   -7.331574|    0.824124|    0.011991|
|         410|   -4.435611|   -7.336365|    0.824124|    0.011991|
|         411|   -4.486005|   -7.340880|    0.824123|    0.011990|
|         412|   -4.518519|   -7.345138|    0.824123|    0.011990|
|         413|   -4.537205|   -7.349217|    0.824122|    0.011989|
|         414|   -4.545667|   -7.353235|    0.824122|    0.011989|
|         415|   -4.548881|   -7.357249|    0.824121|    0.011988|
|         416|   -4.552352|   -7.361223|    0.824121|    0.011988|
|         417|   -4.559758|   -7.365059|    0.824120|    0.011987|
|         418|   -4.571912|   -7.368652|    0.824120|    0.011986|
|         419|   -4.587303|   -7.371932|    0.824119|    0.011986|
|         420|   -4.603462|   -7.374854|    0.824118|    0.011985|
|         421|   -4.618484|   -7.377377|    0.824118|    0.011985|
|         422|   -4.631899|   -7.379437|    0.824117|    0.011984|
|         423|   -4.644424|   -7.380960|    0.824116|    0.011983|
|         424|   -4.657043|   -7.381884|    0.824115|    0.011983|
|         425|   -4.670238|   -7.382163|    0.824114|    0.011982|
|         426|   -4.683804|   -7.381789|    0.824113|    0.011982|
|         427|   -4.697093|   -7.380787|    0.824112|    0.011981|
|         428|   -4.709373|   -7.379223|    0.824111|    0.011980|
|         429|   -4.720088|   -7.377181|    0.824110|    0.011980|
|         430|   -4.728973|   -7.374764|    0.824108|    0.011979|
|         431|   -4.736083|   -7.372079|    0.824107|    0.011979|
|         432|   -4.741776|   -7.369234|    0.824106|    0.011978|
|         433|   -4.746661|   -7.366331|    0.824105|    0.011978|
|         434|   -4.751470|   -7.363458|    0.824103|    0.011977|
|         435|   -4.756904|   -7.360685|    0.824102|    0.011977|
|         436|   -4.763497|   -7.358072|    0.824100|    0.011977|
|         437|   -4.771529|   -7.355668|    0.824099|    0.011976|
|         438|   -4.781005|   -7.353509|    0.824098|    0.011976|
|         439|   -4.791667|   -7.351611|    0.824096|    0.011975|
|         440|   -4.803039|   -7.349995|    0.824095|    0.011975|
|         441|   -4.814509|   -7.348671|    0.824094|    0.011975|
|         442|   -4.825439|   -7.347644|    0.824092|    0.011975|
|         443|   -4.835312|   -7.346917|    0.824091|    0.011975|
|         444|   -4.843857|   -7.346488|    0.824090|    0.011974|
|         445|   -4.851115|   -7.346348|    0.824089|    0.011974|
|         446|   -4.857405|   -7.346486|    0.824087|    0.011974|
|         447|   -4.863206|   -7.346880|    0.824086|    0.011974|
|         448|   -4.869013|   -7.347504|    0.824085|    0.011974|
|         449|   -4.875209|   -7.348319|    0.824084|    0.011974|
|         450|   -4.881993|   -7.349281|    0.824083|    0.011974|
|         451|   -4.889364|   -7.350338|    0.824082|    0.011975|
|         452|   -4.897148|   -7.351430|    0.824080|    0.011975|
|         453|   -4.905058|   -7.352503|    0.824079|    0.011975|
|         454|   -4.912766|   -7.353495|    0.824078|    0.011975|
|         455|   -4.919977|   -7.354349|    0.824076|    0.011976|
|         456|   -4.926478|   -7.355001|    0.824075|    0.011976|
|         457|   -4.932167|   -7.355398|    0.824073|    0.011976|
|         458|   -4.937049|   -7.355498|    0.824071|    0.011977|
|         459|   -4.941208|   -7.355270|    0.824070|    0.011977|
|         460|   -4.944770|   -7.354701|    0.824068|    0.011978|
|         461|   -4.947861|   -7.353791|    0.824066|    0.011978|
|         462|   -4.950590|   -7.352559|    0.824063|    0.011979|
|         463|   -4.953029|   -7.351040|    0.824061|    0.011979|
|         464|   -4.955221|   -7.349283|    0.824059|    0.011980|
|         465|   -4.957186|   -7.347352|    0.824056|    0.011980|
|         466|   -4.958932|   -7.345321|    0.824053|    0.011981|
|         467|   -4.960470|   -7.343269|    0.824051|    0.011982|
|         468|   -4.961814|   -7.341279|    0.824048|    0.011982|
|         469|   -4.962989|   -7.339434|    0.824045|    0.011983|
|         470|   -4.964030|   -7.337812|    0.824042|    0.011984|
|         471|   -4.964973|   -7.336485|    0.824039|    0.011984|
|         472|   -4.965859|   -7.335515|    0.824036|    0.011985|
|         473|   -4.966726|   -7.334952|    0.824033|    0.011986|
|         474|   -4.967608|   -7.334834|    0.824030|    0.011986|
|         475|   -4.968537|   -7.335187|    0.824027|    0.011987|
|         476|   -4.969540|   -7.336021|    0.824025|    0.011987|
|         477|   -4.970640|   -7.337333|    0.824022|    0.011988|
|         478|   -4.971861|   -7.339101|    0.824019|    0.011989|
|         479|   -4.973222|   -7.341289|    0.824017|    0.011989|
|         480|   -4.974743|   -7.343846|    0.824015|    0.011990|
|         481|   -4.976442|   -7.346707|    0.824013|    0.011991|
|         482|   -4.978335|   -7.349795|    0.824011|    0.011991|
|         483|   -4.980438|   -7.353025|    0.824009|    0.011992|
|         484|   -4.982764|   -7.356308|    0.824008|    0.011992|
|         485|   -4.985324|   -7.359548|    0.824007|    0.011993|
|         486|   -4.988128|   -7.362652|    0.824006|    0.011993|
|         487|   -4.991181|   -7.365540|    0.824005|    0.011994|
|         488|   -4.994489|   -7.368139|    0.824005|    0.011994|
|         489|   -4.998055|   -7.370394|    0.824004|    0.011994|
|         490|   -5.001878|   -7.372266|    0.824004|    0.011995|
|         491|   -5.005956|   -7.373739|    0.824005|    0.011995|
|         492|   -5.010284|   -7.374818|    0.824005|    0.011995|
|         493|   -5.014854|   -7.375527|    0.824005|    0.011995|
|         494|   -5.019655|   -7.375911|    0.824006|    0.011995|
|         495|   -5.024674|   -7.376026|    0.824007|    0.011995|
|         496|   -5.029893|   -7.375943|    0.824008|    0.011995|
|         497|   -5.035291|   -7.375735|    0.824009|    0.011995|
|         498|   -5.040843|   -7.375483|    0.824010|    0.011995|
|         499|   -5.046521|   -7.375266|    0.824012|    0.011995|
|         500|   -5.052292|   -7.375153|    0.824013|    0.011995|
|         501|   -5.058122|   -7.375206|    0.824015|    0.011994|
+-----------------------------------------------------------------------+
|Fixed CL Mode                           |Value                         |
+-----------------------------------------------------------------------+
|Current CL                              |0.824015                      |
|Target CL                               |0.824                         |
|Previous AOA                            |2.76553                       |
|Changed AoA by                          |-6.5823e-05                   |
+-----------------------------------------------------------------------+
+----------------------------------------------------------------+
|  Inner_Iter|    rms[Rho]|     rms[nu]|          CL|          CD|
+----------------------------------------------------------------+
|         502|   -4.366963|   -7.374270|    0.824016|    0.011994|
|         503|   -4.715367|   -7.375468|    0.824018|    0.011993|
|         504|   -4.887971|   -7.376471|    0.824019|    0.011993|
|         505|   -4.930421|   -7.377701|    0.824021|    0.011992|
|         506|   -4.956588|   -7.379221|    0.824023|    0.011992|
|         507|   -4.987083|   -7.381035|    0.824024|    0.011992|
|         508|   -5.018760|   -7.383125|    0.824026|    0.011991|
|         509|   -5.045549|   -7.385467|    0.824027|    0.011990|
|         510|   -5.064797|   -7.388030|    0.824029|    0.011990|
|         511|   -5.077753|   -7.390779|    0.824030|    0.011989|
|         512|   -5.086589|   -7.393678|    0.824032|    0.011989|
|         513|   -5.092650|   -7.396690|    0.824033|    0.011988|
|         514|   -5.096674|   -7.399781|    0.824034|    0.011987|
|         515|   -5.099358|   -7.402917|    0.824035|    0.011987|
|         516|   -5.101424|   -7.406067|    0.824036|    0.011986|
|         517|   -5.103373|   -7.409211|    0.824037|    0.011985|
|         518|   -5.105335|   -7.412326|    0.824037|    0.011984|
|         519|   -5.107147|   -7.415394|    0.824038|    0.011983|
|         520|   -5.108572|   -7.418403|    0.824038|    0.011983|
|         521|   -5.109484|   -7.421348|    0.824039|    0.011982|
|         522|   -5.109919|   -7.424226|    0.824039|    0.011981|
|         523|   -5.110002|   -7.427040|    0.824039|    0.011980|
|         524|   -5.109848|   -7.429794|    0.824038|    0.011979|
|         525|   -5.109505|   -7.432494|    0.824038|    0.011979|
|         526|   -5.108965|   -7.435149|    0.824037|    0.011978|
|         527|   -5.108200|   -7.437764|    0.824037|    0.011977|
|         528|   -5.107202|   -7.440346|    0.824036|    0.011976|
|         529|   -5.105996|   -7.442898|    0.824035|    0.011976|
|         530|   -5.104638|   -7.445421|    0.824034|    0.011975|
|         531|   -5.103206|   -7.447910|    0.824033|    0.011974|
|         532|   -5.101794|   -7.450360|    0.824032|    0.011973|
|         533|   -5.100496|   -7.452760|    0.824030|    0.011973|
|         534|   -5.099401|   -7.455096|    0.824029|    0.011972|
|         535|   -5.098584|   -7.457354|    0.824027|    0.011972|
|         536|   -5.098093|   -7.459514|    0.824026|    0.011971|
|         537|   -5.097955|   -7.461561|    0.824024|    0.011970|
|         538|   -5.098175|   -7.463479|    0.824023|    0.011970|
|         539|   -5.098741|   -7.465255|    0.824021|    0.011970|
|         540|   -5.099634|   -7.466882|    0.824020|    0.011969|
|         541|   -5.100830|   -7.468361|    0.824018|    0.011969|
|         542|   -5.102309|   -7.469699|    0.824017|    0.011968|
|         543|   -5.104059|   -7.470909|    0.824015|    0.011968|
|         544|   -5.106079|   -7.472012|    0.824014|    0.011968|
|         545|   -5.108374|   -7.473036|    0.824013|    0.011968|
|         546|   -5.110956|   -7.474012|    0.824011|    0.011968|
|         547|   -5.113839|   -7.474976|    0.824010|    0.011968|
|         548|   -5.117031|   -7.475970|    0.824009|    0.011968|
|         549|   -5.120534|   -7.477033|    0.824008|    0.011968|
|         550|   -5.124338|   -7.478205|    0.824007|    0.011968|
|         551|   -5.128426|   -7.479520|    0.824006|    0.011968|
|         552|   -5.132771|   -7.481009|    0.824005|    0.011969|
|         553|   -5.137341|   -7.482693|    0.824005|    0.011969|
|         554|   -5.142099|   -7.484587|    0.824004|    0.011969|
|         555|   -5.147009|   -7.486700|    0.824004|    0.011970|
|         556|   -5.152032|   -7.489031|    0.824003|    0.011970|
|         557|   -5.157134|   -7.491566|    0.824003|    0.011971|
|         558|   -5.162276|   -7.494283|    0.824003|    0.011972|
|         559|   -5.167424|   -7.497148|    0.824002|    0.011972|
|         560|   -5.172539|   -7.500117|    0.824002|    0.011973|
|         561|   -5.177582|   -7.503140|    0.824002|    0.011974|
|         562|   -5.182512|   -7.506158|    0.824002|    0.011975|
|         563|   -5.187286|   -7.509111|    0.824002|    0.011976|
|         564|   -5.191861|   -7.511934|    0.824002|    0.011977|
|         565|   -5.196194|   -7.514565|    0.824002|    0.011978|
|         566|   -5.200242|   -7.516949|    0.824002|    0.011979|
|         567|   -5.203966|   -7.519035|    0.824002|    0.011980|
|         568|   -5.207331|   -7.520785|    0.824002|    0.011981|
|         569|   -5.210306|   -7.522169|    0.824002|    0.011982|
|         570|   -5.212869|   -7.523175|    0.824002|    0.011983|
|         571|   -5.215002|   -7.523804|    0.824001|    0.011984|
|         572|   -5.216694|   -7.524075|    0.824001|    0.011986|
|         573|   -5.217942|   -7.524005|    0.824001|    0.011987|
|         574|   -5.218752|   -7.523634|    0.824001|    0.011988|
|         575|   -5.219137|   -7.523015|    0.824001|    0.011989|
|         576|   -5.219116|   -7.522207|    0.824000|    0.011990|
|         577|   -5.218716|   -7.521269|    0.824000|    0.011992|
|         578|   -5.217969|   -7.520264|    0.823999|    0.011993|
|         579|   -5.216912|   -7.519248|    0.823999|    0.011994|
|         580|   -5.215587|   -7.518273|    0.823998|    0.011995|
|         581|   -5.214038|   -7.517383|    0.823998|    0.011996|
|         582|   -5.212313|   -7.516612|    0.823997|    0.011997|
|         583|   -5.210460|   -7.515984|    0.823996|    0.011999|
|         584|   -5.208526|   -7.515515|    0.823995|    0.012000|
|         585|   -5.206560|   -7.515208|    0.823995|    0.012001|
|         586|   -5.204607|   -7.515062|    0.823994|    0.012002|
|         587|   -5.202713|   -7.515063|    0.823993|    0.012003|
|         588|   -5.200920|   -7.515198|    0.823992|    0.012004|
|         589|   -5.199267|   -7.515445|    0.823991|    0.012005|
|         590|   -5.197792|   -7.515778|    0.823990|    0.012005|
|         591|   -5.196530|   -7.516166|    0.823989|    0.012006|
|         592|   -5.195511|   -7.516580|    0.823988|    0.012007|
|         593|   -5.194765|   -7.516984|    0.823987|    0.012008|
|         594|   -5.194316|   -7.517347|    0.823986|    0.012008|
|         595|   -5.194187|   -7.517638|    0.823985|    0.012009|
|         596|   -5.194398|   -7.517829|    0.823984|    0.012009|
|         597|   -5.194964|   -7.517897|    0.823983|    0.012010|
|         598|   -5.195901|   -7.517825|    0.823982|    0.012010|
|         599|   -5.197218|   -7.517599|    0.823981|    0.012011|
|         600|   -5.198923|   -7.517214|    0.823980|    0.012011|
|         601|   -5.201021|   -7.516667|    0.823979|    0.012013|
+-----------------------------------------------------------------------+
|Fixed CL Mode                           |Value                         |
+-----------------------------------------------------------------------+
|Current CL                              |0.823979                      |
|Target CL                               |0.824                         |
|Previous AOA                            |2.76546                       |
|Changed AoA by                          |9.78679e-05                   |
+-----------------------------------------------------------------------+
+----------------------------------------------------------------+
|  Inner_Iter|    rms[Rho]|     rms[nu]|          CL|          CD|
+----------------------------------------------------------------+
|         602|   -4.200390|   -7.509961|    0.823979|    0.012013|
|         603|   -4.574608|   -7.512135|    0.823978|    0.012013|
|         604|   -4.795901|   -7.512094|    0.823977|    0.012013|
|         605|   -4.862071|   -7.511487|    0.823976|    0.012013|
|         606|   -4.905207|   -7.510584|    0.823975|    0.012013|
|         607|   -4.957784|   -7.509484|    0.823974|    0.012013|
|         608|   -5.016800|   -7.508246|    0.823973|    0.012013|
|         609|   -5.070729|   -7.506921|    0.823972|    0.012012|
|         610|   -5.110914|   -7.505545|    0.823972|    0.012012|
|         611|   -5.137402|   -7.504145|    0.823971|    0.012012|
|         612|   -5.154585|   -7.502739|    0.823970|    0.012011|
|         613|   -5.165841|   -7.501346|    0.823969|    0.012011|
|         614|   -5.173212|   -7.499985|    0.823968|    0.012010|
|         615|   -5.178741|   -7.498671|    0.823967|    0.012010|
|         616|   -5.184554|   -7.497415|    0.823967|    0.012009|
|         617|   -5.192082|   -7.496231|    0.823966|    0.012009|
|         618|   -5.201564|   -7.495129|    0.823965|    0.012008|
|         619|   -5.212236|   -7.494119|    0.823964|    0.012007|
|         620|   -5.222965|   -7.493210|    0.823963|    0.012007|
|         621|   -5.232914|   -7.492414|    0.823963|    0.012006|
|         622|   -5.241854|   -7.491738|    0.823962|    0.012005|
|         623|   -5.250016|   -7.491189|    0.823961|    0.012004|
|         624|   -5.257720|   -7.490772|    0.823960|    0.012003|
|         625|   -5.265101|   -7.490490|    0.823960|    0.012002|
|         626|   -5.272054|   -7.490348|    0.823959|    0.012001|
|         627|   -5.278345|   -7.490346|    0.823958|    0.012000|
|         628|   -5.283739|   -7.490485|    0.823958|    0.012000|
|         629|   -5.288086|   -7.490764|    0.823957|    0.011999|
|         630|   -5.291334|   -7.491182|    0.823957|    0.011998|
|         631|   -5.293533|   -7.491730|    0.823956|    0.011997|
|         632|   -5.294819|   -7.492402|    0.823956|    0.011996|
|         633|   -5.295402|   -7.493191|    0.823955|    0.011995|
|         634|   -5.295529|   -7.494094|    0.823955|    0.011994|
|         635|   -5.295438|   -7.495100|    0.823955|    0.011993|
|         636|   -5.295319|   -7.496198|    0.823955|    0.011992|
|         637|   -5.295291|   -7.497378|    0.823954|    0.011991|
|         638|   -5.295400|   -7.498631|    0.823954|    0.011990|
|         639|   -5.295626|   -7.499949|    0.823955|    0.011989|
|         640|   -5.295910|   -7.501327|    0.823955|    0.011988|
|         641|   -5.296182|   -7.502759|    0.823955|    0.011987|
|         642|   -5.296382|   -7.504245|    0.823955|    0.011986|
|         643|   -5.296487|   -7.505784|    0.823956|    0.011985|
|         644|   -5.296523|   -7.507380|    0.823956|    0.011985|
|         645|   -5.296564|   -7.509037|    0.823957|    0.011984|
|         646|   -5.296716|   -7.510763|    0.823958|    0.011983|
|         647|   -5.297096|   -7.512566|    0.823958|    0.011982|
|         648|   -5.297811|   -7.514455|    0.823959|    0.011982|
|         649|   -5.298940|   -7.516442|    0.823960|    0.011981|
|         650|   -5.300526|   -7.518538|    0.823962|    0.011980|
|         651|   -5.302580|   -7.520755|    0.823963|    0.011980|
|         652|   -5.305085|   -7.523107|    0.823964|    0.011979|
|         653|   -5.308009|   -7.525605|    0.823966|    0.011979|
|         654|   -5.311317|   -7.528264|    0.823967|    0.011979|
|         655|   -5.314980|   -7.531095|    0.823969|    0.011978|
|         656|   -5.318978|   -7.534109|    0.823970|    0.011978|
|         657|   -5.323304|   -7.537316|    0.823972|    0.011978|
|         658|   -5.327962|   -7.540724|    0.823974|    0.011978|
|         659|   -5.332960|   -7.544342|    0.823976|    0.011978|
|         660|   -5.338308|   -7.548173|    0.823978|    0.011978|
|         661|   -5.344012|   -7.552222|    0.823980|    0.011978|
|         662|   -5.350072|   -7.556488|    0.823982|    0.011978|
|         663|   -5.356479|   -7.560970|    0.823984|    0.011978|
|         664|   -5.363217|   -7.565665|    0.823986|    0.011978|
|         665|   -5.370263|   -7.570568|    0.823988|    0.011978|
|         666|   -5.377586|   -7.575671|    0.823990|    0.011978|
|         667|   -5.385153|   -7.580965|    0.823992|    0.011979|
|         668|   -5.392923|   -7.586438|    0.823994|    0.011979|
|         669|   -5.400856|   -7.592078|    0.823996|    0.011979|
|         670|   -5.408903|   -7.597869|    0.823999|    0.011980|
|         671|   -5.417017|   -7.603795|    0.824001|    0.011980|
|         672|   -5.425140|   -7.609840|    0.824002|    0.011981|
|         673|   -5.433216|   -7.615985|    0.824004|    0.011981|
|         674|   -5.441181|   -7.622213|    0.824006|    0.011982|
|         675|   -5.448967|   -7.628504|    0.824008|    0.011983|
|         676|   -5.456507|   -7.634842|    0.824010|    0.011983|
|         677|   -5.463730|   -7.641213|    0.824011|    0.011984|
|         678|   -5.470569|   -7.647604|    0.824013|    0.011985|
|         679|   -5.476958|   -7.654005|    0.824014|    0.011986|
|         680|   -5.482837|   -7.660405|    0.824015|    0.011986|
|         681|   -5.488156|   -7.666797|    0.824017|    0.011987|
|         682|   -5.492872|   -7.673176|    0.824018|    0.011988|
|         683|   -5.496956|   -7.679537|    0.824019|    0.011989|
|         684|   -5.500394|   -7.685881|    0.824020|    0.011990|
|         685|   -5.503182|   -7.692208|    0.824020|    0.011991|
|         686|   -5.505333|   -7.698522|    0.824021|    0.011992|
|         687|   -5.506876|   -7.704827|    0.824022|    0.011992|
|         688|   -5.507848|   -7.711132|    0.824022|    0.011993|
|         689|   -5.508301|   -7.717445|    0.824022|    0.011994|
|         690|   -5.508297|   -7.723775|    0.824023|    0.011995|
|         691|   -5.507900|   -7.730134|    0.824023|    0.011996|
|         692|   -5.507185|   -7.736532|    0.824023|    0.011997|
|         693|   -5.506225|   -7.742979|    0.824023|    0.011998|
|         694|   -5.505096|   -7.749486|    0.824022|    0.011999|
|         695|   -5.503870|   -7.756061|    0.824022|    0.011999|
|         696|   -5.502620|   -7.762711|    0.824022|    0.012000|
|         697|   -5.501412|   -7.769443|    0.824021|    0.012001|
|         698|   -5.500310|   -7.776249|    0.824021|    0.012002|
|         699|   -5.499369|   -7.783133|    0.824020|    0.012003|
|         700|   -5.498644|   -7.790094|    0.824020|    0.012003|
|         701|   -5.498180|   -7.797132|    0.824019|    0.012003|
+-----------------------------------------------------------------------+
|Fixed CL Mode                           |Value                         |
+-----------------------------------------------------------------------+
|Current CL                              |0.824019                      |
|Target CL                               |0.824                         |
|Previous AOA                            |2.76556                       |
|Changed AoA by                          |-9.83454e-05                  |
+-----------------------------------------------------------------------+
+----------------------------------------------------------------+
|  Inner_Iter|    rms[Rho]|     rms[nu]|          CL|          CD|
+----------------------------------------------------------------+
|         702|   -4.200243|   -7.784254|    0.824018|    0.012003|
|         703|   -4.583942|   -7.801179|    0.824017|    0.012004|
|         704|   -4.827191|   -7.810954|    0.824016|    0.012005|
|         705|   -4.905225|   -7.819496|    0.824016|    0.012005|
|         706|   -4.956469|   -7.827744|    0.824015|    0.012006|
|         707|   -5.021082|   -7.835871|    0.824014|    0.012006|
|         708|   -5.098031|   -7.843865|    0.824013|    0.012007|
|         709|   -5.173362|   -7.851678|    0.824011|    0.012007|
|         710|   -5.232162|   -7.859261|    0.824010|    0.012008|
|         711|   -5.270278|   -7.866569|    0.824009|    0.012008|
|         712|   -5.292610|   -7.873584|    0.824008|    0.012008|
|         713|   -5.304447|   -7.880326|    0.824007|    0.012008|
|         714|   -5.309633|   -7.886840|    0.824006|    0.012009|
|         715|   -5.312237|   -7.893166|    0.824004|    0.012009|
|         716|   -5.316286|   -7.899319|    0.824003|    0.012009|
|         717|   -5.324289|   -7.905298|    0.824002|    0.012009|
|         718|   -5.336541|   -7.911094|    0.824001|    0.012009|
|         719|   -5.351517|   -7.916703|    0.824000|    0.012009|
|         720|   -5.366962|   -7.922124|    0.823998|    0.012009|
|         721|   -5.381126|   -7.927349|    0.823997|    0.012009|
|         722|   -5.393497|   -7.932363|    0.823996|    0.012009|
|         723|   -5.404630|   -7.937143|    0.823995|    0.012009|
|         724|   -5.415419|   -7.941665|    0.823994|    0.012008|
|         725|   -5.426463|   -7.945910|    0.823993|    0.012008|
|         726|   -5.437862|   -7.949858|    0.823992|    0.012008|
|         727|   -5.449360|   -7.953503|    0.823991|    0.012007|
|         728|   -5.460561|   -7.956844|    0.823990|    0.012007|
|         729|   -5.471078|   -7.959885|    0.823989|    0.012007|
|         730|   -5.480602|   -7.962633|    0.823988|    0.012006|
|         731|   -5.488952|   -7.965103|    0.823987|    0.012006|
|         732|   -5.496120|   -7.967310|    0.823986|    0.012005|
|         733|   -5.502310|   -7.969277|    0.823986|    0.012005|
|         734|   -5.507891|   -7.971027|    0.823985|    0.012004|
|         735|   -5.513310|   -7.972591|    0.823984|    0.012004|
|         736|   -5.518968|   -7.974020|    0.823984|    0.012003|
|         737|   -5.525130|   -7.975338|    0.823983|    0.012002|
|         738|   -5.531880|   -7.976567|    0.823982|    0.012002|
|         739|   -5.539108|   -7.977729|    0.823982|    0.012001|
|         740|   -5.546545|   -7.978843|    0.823981|    0.012000|
|         741|   -5.553820|   -7.979933|    0.823981|    0.012000|
|         742|   -5.560546|   -7.981021|    0.823980|    0.011999|
|         743|   -5.566415|   -7.982132|    0.823980|    0.011998|
|         744|   -5.571287|   -7.983290|    0.823979|    0.011998|
|         745|   -5.575214|   -7.984518|    0.823979|    0.011997|
|         746|   -5.578423|   -7.985839|    0.823979|    0.011996|
|         747|   -5.581233|   -7.987271|    0.823978|    0.011995|
|         748|   -5.583972|   -7.988831|    0.823978|    0.011995|
|         749|   -5.586894|   -7.990535|    0.823978|    0.011994|
|         750|   -5.590142|   -7.992393|    0.823977|    0.011993|
|         751|   -5.593738|   -7.994415|    0.823977|    0.011992|
|         752|   -5.597607|   -7.996607|    0.823977|    0.011992|
|         753|   -5.601614|   -7.998980|    0.823976|    0.011991|
|         754|   -5.605610|   -8.001535|    0.823976|    0.011990|
|         755|   -5.609468|   -8.004278|    0.823976|    0.011990|
|         756|   -5.613106|   -8.007211|    0.823975|    0.011989|
|         757|   -5.616499|   -8.010339|    0.823975|    0.011988|
|         758|   -5.619670|   -8.013665|    0.823975|    0.011988|
|         759|   -5.622672|   -8.017193|    0.823974|    0.011987|
|         760|   -5.625574|   -8.020929|    0.823974|    0.011987|
|         761|   -5.628436|   -8.024876|    0.823974|    0.011986|
|         762|   -5.631303|   -8.029041|    0.823974|    0.011986|
|         763|   -5.634199|   -8.033426|    0.823973|    0.011985|
|         764|   -5.637125|   -8.038047|    0.823973|    0.011985|
|         765|   -5.640067|   -8.042908|    0.823973|    0.011984|
|         766|   -5.643001|   -8.048005|    0.823972|    0.011984|
|         767|   -5.645901|   -8.053331|    0.823972|    0.011983|
|         768|   -5.648737|   -8.058882|    0.823972|    0.011983|
|         769|   -5.651483|   -8.064647|    0.823972|    0.011983|
|         770|   -5.654115|   -8.070617|    0.823972|    0.011983|
|         771|   -5.656610|   -8.076778|    0.823971|    0.011982|
|         772|   -5.658947|   -8.083116|    0.823971|    0.011982|
|         773|   -5.661103|   -8.089611|    0.823971|    0.011982|
|         774|   -5.663059|   -8.096241|    0.823971|    0.011982|
|         775|   -5.664792|   -8.102980|    0.823971|    0.011982|
|         776|   -5.666283|   -8.109800|    0.823972|    0.011982|
|         777|   -5.667516|   -8.116675|    0.823972|    0.011982|
|         778|   -5.668477|   -8.123580|    0.823972|    0.011982|
|         779|   -5.669159|   -8.130490|    0.823972|    0.011982|
|         780|   -5.669556|   -8.137384|    0.823973|    0.011982|
|         781|   -5.669670|   -8.144244|    0.823973|    0.011982|
|         782|   -5.669507|   -8.151058|    0.823973|    0.011982|
|         783|   -5.669077|   -8.157816|    0.823974|    0.011983|
|         784|   -5.668394|   -8.164518|    0.823975|    0.011983|
|         785|   -5.667476|   -8.171163|    0.823975|    0.011983|
|         786|   -5.666345|   -8.177758|    0.823976|    0.011983|
|         787|   -5.665026|   -8.184309|    0.823977|    0.011984|
|         788|   -5.663544|   -8.190822|    0.823977|    0.011984|
|         789|   -5.661928|   -8.197302|    0.823978|    0.011985|
|         790|   -5.660208|   -8.203749|    0.823979|    0.011985|
|         791|   -5.658415|   -8.210160|    0.823980|    0.011986|
|         792|   -5.656578|   -8.216520|    0.823981|    0.011986|
|         793|   -5.654729|   -8.222808|    0.823981|    0.011987|
|         794|   -5.652899|   -8.228993|    0.823982|    0.011987|
|         795|   -5.651115|   -8.235030|    0.823983|    0.011988|
|         796|   -5.649405|   -8.240868|    0.823984|    0.011988|
|         797|   -5.647795|   -8.246446|    0.823985|    0.011989|
|         798|   -5.646310|   -8.251693|    0.823986|    0.011989|
|         799|   -5.644970|   -8.256537|    0.823987|    0.011990|
|         800|   -5.643796|   -8.260904|    0.823987|    0.011991|
|         801|   -5.642803|   -8.264724|    0.823988|    0.011992|
+-----------------------------------------------------------------------+
|Fixed CL Mode                           |Value                         |
+-----------------------------------------------------------------------+
|Current CL                              |0.823988                      |
|Target CL                               |0.824                         |
|Previous AOA                            |2.76546                       |
|Changed AoA by                          |6.33013e-05                   |
+-----------------------------------------------------------------------+
+----------------------------------------------------------------+
|  Inner_Iter|    rms[Rho]|     rms[nu]|          CL|          CD|
+----------------------------------------------------------------+
|         802|   -4.391348|   -8.200840|    0.823989|    0.011993|
|         803|   -4.773116|   -8.234825|    0.823990|    0.011993|
|         804|   -5.009787|   -8.247115|    0.823990|    0.011994|
|         805|   -5.082904|   -8.254067|    0.823991|    0.011994|
|         806|   -5.131238|   -8.258411|    0.823991|    0.011995|
|         807|   -5.192814|   -8.260922|    0.823992|    0.011996|
|         808|   -5.266018|   -8.262020|    0.823992|    0.011996|
|         809|   -5.337631|   -8.262061|    0.823993|    0.011997|
|         810|   -5.394280|   -8.261325|    0.823993|    0.011997|
|         811|   -5.432371|   -8.259990|    0.823994|    0.011998|
|         812|   -5.455996|   -8.258205|    0.823994|    0.011998|
|         813|   -5.469497|   -8.256140|    0.823994|    0.011999|
|         814|   -5.476053|   -8.253971|    0.823994|    0.012000|
|         815|   -5.479237|   -8.251841|    0.823995|    0.012000|
|         816|   -5.482756|   -8.249831|    0.823995|    0.012000|
|         817|   -5.489032|   -8.247992|    0.823995|    0.012001|
|         818|   -5.498491|   -8.246378|    0.823995|    0.012001|
|         819|   -5.509953|   -8.245055|    0.823995|    0.012002|
|         820|   -5.521649|   -8.244093|    0.823995|    0.012002|
|         821|   -5.532290|   -8.243553|    0.823994|    0.012003|
|         822|   -5.541578|   -8.243469|    0.823994|    0.012003|
|         823|   -5.549974|   -8.243854|    0.823994|    0.012003|
|         824|   -5.558080|   -8.244702|    0.823994|    0.012003|
|         825|   -5.566172|   -8.246004|    0.823993|    0.012004|
|         826|   -5.574112|   -8.247749|    0.823993|    0.012004|
|         827|   -5.581527|   -8.249909|    0.823992|    0.012004|
|         828|   -5.588021|   -8.252464|    0.823992|    0.012004|
|         829|   -5.593319|   -8.255369|    0.823991|    0.012004|
|         830|   -5.597297|   -8.258594|    0.823991|    0.012005|
|         831|   -5.599993|   -8.262101|    0.823990|    0.012005|
|         832|   -5.601583|   -8.265840|    0.823989|    0.012005|
|         833|   -5.602361|   -8.269748|    0.823989|    0.012005|
|         834|   -5.602676|   -8.273748|    0.823988|    0.012005|
|         835|   -5.602860|   -8.277745|    0.823987|    0.012005|
|         836|   -5.603158|   -8.281630|    0.823987|    0.012005|
|         837|   -5.603692|   -8.285288|    0.823986|    0.012005|
|         838|   -5.604453|   -8.288594|    0.823985|    0.012005|
|         839|   -5.605327|   -8.291418|    0.823985|    0.012004|
|         840|   -5.606135|   -8.293632|    0.823984|    0.012004|
|         841|   -5.606675|   -8.295118|    0.823983|    0.012004|
|         842|   -5.606780|   -8.295774|    0.823983|    0.012004|
|         843|   -5.606361|   -8.295518|    0.823982|    0.012004|
|         844|   -5.605426|   -8.294300|    0.823981|    0.012003|
|         845|   -5.604083|   -8.292096|    0.823981|    0.012003|
|         846|   -5.602506|   -8.288919|    0.823980|    0.012003|
|         847|   -5.600895|   -8.284811|    0.823980|    0.012003|
|         848|   -5.599431|   -8.279844|    0.823979|    0.012002|
|         849|   -5.598248|   -8.274116|    0.823979|    0.012002|
|         850|   -5.597418|   -8.267745|    0.823978|    0.012002|
|         851|   -5.596955|   -8.260865|    0.823978|    0.012001|
|         852|   -5.596834|   -8.253618|    0.823978|    0.012001|
|         853|   -5.597005|   -8.246148|    0.823977|    0.012001|
|         854|   -5.597417|   -8.238598|    0.823977|    0.012000|
|         855|   -5.598031|   -8.231103|    0.823977|    0.012000|
|         856|   -5.598828|   -8.223795|    0.823977|    0.011999|
|         857|   -5.599809|   -8.216791|    0.823977|    0.011999|
|         858|   -5.600992|   -8.210198|    0.823977|    0.011999|
|         859|   -5.602404|   -8.204109|    0.823977|    0.011998|
|         860|   -5.604072|   -8.198605|    0.823977|    0.011998|
|         861|   -5.606019|   -8.193756|    0.823978|    0.011997|
|         862|   -5.608256|   -8.189620|    0.823978|    0.011997|
|         863|   -5.610788|   -8.186245|    0.823978|    0.011997|
|         864|   -5.613604|   -8.183667|    0.823979|    0.011996|
|         865|   -5.616688|   -8.181914|    0.823979|    0.011996|
|         866|   -5.620017|   -8.181000|    0.823980|    0.011996|
|         867|   -5.623563|   -8.180933|    0.823980|    0.011995|
|         868|   -5.627297|   -8.181711|    0.823981|    0.011995|
|         869|   -5.631187|   -8.183321|    0.823982|    0.011994|
|         870|   -5.635198|   -8.185740|    0.823982|    0.011994|
|         871|   -5.639294|   -8.188936|    0.823983|    0.011994|
|         872|   -5.643437|   -8.192866|    0.823984|    0.011993|
|         873|   -5.647585|   -8.197476|    0.823984|    0.011993|
|         874|   -5.651694|   -8.202705|    0.823985|    0.011993|
|         875|   -5.655719|   -8.208477|    0.823986|    0.011993|
|         876|   -5.659614|   -8.214712|    0.823987|    0.011992|
|         877|   -5.663329|   -8.221318|    0.823987|    0.011992|
|         878|   -5.666820|   -8.228200|    0.823988|    0.011992|
|         879|   -5.670043|   -8.235255|    0.823989|    0.011992|
|         880|   -5.672956|   -8.242382|    0.823990|    0.011991|
|         881|   -5.675523|   -8.249481|    0.823990|    0.011991|
|         882|   -5.677714|   -8.256458|    0.823991|    0.011991|
|         883|   -5.679504|   -8.263230|    0.823992|    0.011991|
|         884|   -5.680877|   -8.269726|    0.823992|    0.011991|
|         885|   -5.681825|   -8.275891|    0.823993|    0.011990|
|         886|   -5.682345|   -8.281695|    0.823993|    0.011990|
|         887|   -5.682446|   -8.287129|    0.823994|    0.011990|
|         888|   -5.682142|   -8.292193|    0.823994|    0.011990|
|         889|   -5.681455|   -8.296900|    0.823995|    0.011990|
|         890|   -5.680413|   -8.301281|    0.823995|    0.011990|
|         891|   -5.679050|   -8.305379|    0.823996|    0.011990|
|         892|   -5.677404|   -8.309244|    0.823996|    0.011990|
|         893|   -5.675514|   -8.312927|    0.823996|    0.011990|
|         894|   -5.673424|   -8.316483|    0.823997|    0.011990|
|         895|   -5.671176|   -8.319957|    0.823997|    0.011990|
|         896|   -5.668814|   -8.323390|    0.823997|    0.011990|
|         897|   -5.666379|   -8.326812|    0.823997|    0.011990|
|         898|   -5.663913|   -8.330239|    0.823998|    0.011990|
|         899|   -5.661455|   -8.333679|    0.823998|    0.011990|
|         900|   -5.659040|   -8.337123|    0.823998|    0.011990|
|         901|   -5.656703|   -8.340553|    0.823998|    0.011990|
+-----------------------------------------------------------------------+
|Fixed CL Mode                           |Value                         |
+-----------------------------------------------------------------------+
|Current CL                              |0.823998                      |
|Target CL                               |0.824                         |
|Previous AOA                            |2.76553                       |
[...]
|        5298|   -6.047423|   -7.958284|    0.824240|    0.012000|
|        5299|   -6.054152|   -7.962203|    0.824240|    0.011999|
|        5300|   -6.060442|   -7.966198|    0.824240|    0.011999|
|        5301|   -6.066259|   -7.970281|    0.824240|    0.011999|
|        5302|   -6.071583|   -7.974464|    0.824240|    0.011999|
|        5303|   -6.076406|   -7.978754|    0.824240|    0.011999|
|        5304|   -6.080735|   -7.983154|    0.824240|    0.011999|
|        5305|   -6.084587|   -7.987665|    0.824240|    0.011999|
|        5306|   -6.087992|   -7.992285|    0.824241|    0.011999|
|        5307|   -6.090990|   -7.997010|    0.824241|    0.011999|
|        5308|   -6.093630|   -8.001837|    0.824241|    0.011999|
|        5309|   -6.095966|   -8.006758|    0.824241|    0.011999|
|        5310|   -6.098058|   -8.011770|    0.824241|    0.011999|
|        5311|   -6.099966|   -8.016868|    0.824241|    0.011999|
|        5312|   -6.101751|   -8.022047|    0.824241|    0.011999|
|        5313|   -6.103473|   -8.027304|    0.824241|    0.011999|
|        5314|   -6.105190|   -8.032638|    0.824242|    0.011999|
|        5315|   -6.106953|   -8.038048|    0.824242|    0.011999|
|        5316|   -6.108811|   -8.043535|    0.824242|    0.011999|
|        5317|   -6.110807|   -8.049100|    0.824242|    0.011999|
|        5318|   -6.112975|   -8.054745|    0.824242|    0.011999|
|        5319|   -6.115346|   -8.060473|    0.824242|    0.011999|
|        5320|   -6.117943|   -8.066287|    0.824242|    0.011999|
|        5321|   -6.120781|   -8.072189|    0.824243|    0.011999|
|        5322|   -6.123870|   -8.078181|    0.824243|    0.011999|
|        5323|   -6.127212|   -8.084265|    0.824243|    0.011999|
|        5324|   -6.130803|   -8.090441|    0.824243|    0.011999|
|        5325|   -6.134631|   -8.096709|    0.824243|    0.011999|
|        5326|   -6.138680|   -8.103066|    0.824244|    0.012000|
|        5327|   -6.142927|   -8.109508|    0.824244|    0.012000|
|        5328|   -6.147343|   -8.116032|    0.824244|    0.012000|
|        5329|   -6.151893|   -8.122629|    0.824244|    0.012000|
|        5330|   -6.156544|   -8.129292|    0.824244|    0.012000|
|        5331|   -6.161249|   -8.136012|    0.824245|    0.012000|
|        5332|   -6.165966|   -8.142778|    0.824245|    0.012000|
|        5333|   -6.170647|   -8.149581|    0.824245|    0.012000|
|        5334|   -6.175248|   -8.156409|    0.824245|    0.012000|
|        5335|   -6.179724|   -8.163252|    0.824245|    0.012000|
|        5336|   -6.184033|   -8.170101|    0.824246|    0.012000|
|        5337|   -6.188137|   -8.176947|    0.824246|    0.012000|
|        5338|   -6.192004|   -8.183783|    0.824246|    0.012001|
|        5339|   -6.195609|   -8.190602|    0.824246|    0.012001|
|        5340|   -6.198934|   -8.197401|    0.824246|    0.012001|
|        5341|   -6.201970|   -8.204178|    0.824246|    0.012001|
|        5342|   -6.204718|   -8.210932|    0.824247|    0.012001|
|        5343|   -6.207186|   -8.217666|    0.824247|    0.012001|
|        5344|   -6.209391|   -8.224384|    0.824247|    0.012001|
|        5345|   -6.211360|   -8.231091|    0.824247|    0.012001|
|        5346|   -6.213122|   -8.237794|    0.824247|    0.012001|
|        5347|   -6.214716|   -8.244504|    0.824247|    0.012001|
|        5348|   -6.216183|   -8.251228|    0.824248|    0.012001|
|        5349|   -6.217567|   -8.257978|    0.824248|    0.012001|
|        5350|   -6.218914|   -8.264765|    0.824248|    0.012001|
|        5351|   -6.220270|   -8.271599|    0.824248|    0.012001|
|        5352|   -6.221682|   -8.278491|    0.824248|    0.012001|
|        5353|   -6.223191|   -8.285450|    0.824248|    0.012002|
|        5354|   -6.224839|   -8.292486|    0.824248|    0.012002|
|        5355|   -6.226664|   -8.299607|    0.824249|    0.012002|
|        5356|   -6.228700|   -8.306819|    0.824249|    0.012002|
|        5357|   -6.230975|   -8.314127|    0.824249|    0.012002|
|        5358|   -6.233515|   -8.321537|    0.824249|    0.012002|
|        5359|   -6.236340|   -8.329050|    0.824249|    0.012002|
|        5360|   -6.239466|   -8.336667|    0.824249|    0.012002|
|        5361|   -6.242902|   -8.344387|    0.824249|    0.012002|
|        5362|   -6.246654|   -8.352206|    0.824249|    0.012002|
|        5363|   -6.250723|   -8.360120|    0.824249|    0.012002|
|        5364|   -6.255103|   -8.368123|    0.824249|    0.012002|
|        5365|   -6.259786|   -8.376204|    0.824249|    0.012002|
|        5366|   -6.264756|   -8.384355|    0.824250|    0.012002|
|        5367|   -6.269992|   -8.392562|    0.824250|    0.012002|
|        5368|   -6.275472|   -8.400811|    0.824250|    0.012002|
|        5369|   -6.281164|   -8.409088|    0.824250|    0.012002|
|        5370|   -6.287036|   -8.417376|    0.824250|    0.012002|
|        5371|   -6.293049|   -8.425655|    0.824250|    0.012002|
|        5372|   -6.299160|   -8.433908|    0.824250|    0.012002|
|        5373|   -6.305325|   -8.442115|    0.824250|    0.012002|
|        5374|   -6.311494|   -8.450254|    0.824250|    0.012002|
|        5375|   -6.317620|   -8.458304|    0.824250|    0.012002|
|        5376|   -6.323650|   -8.466243|    0.824250|    0.012001|
|        5377|   -6.329536|   -8.474050|    0.824250|    0.012001|
|        5378|   -6.335228|   -8.481702|    0.824250|    0.012001|
|        5379|   -6.340680|   -8.489177|    0.824250|    0.012001|
|        5380|   -6.345850|   -8.496453|    0.824250|    0.012001|
|        5381|   -6.350701|   -8.503510|    0.824250|    0.012001|
|        5382|   -6.355203|   -8.510328|    0.824250|    0.012001|
|        5383|   -6.359331|   -8.516884|    0.824250|    0.012001|
|        5384|   -6.363070|   -8.523160|    0.824251|    0.012001|
|        5385|   -6.366411|   -8.529134|    0.824251|    0.012001|
|        5386|   -6.369351|   -8.534785|    0.824251|    0.012001|
|        5387|   -6.371898|   -8.540091|    0.824251|    0.012001|
|        5388|   -6.374065|   -8.545032|    0.824251|    0.012001|
|        5389|   -6.375870|   -8.549585|    0.824251|    0.012001|
|        5390|   -6.377335|   -8.553729|    0.824251|    0.012000|
|        5391|   -6.378485|   -8.557443|    0.824251|    0.012000|
|        5392|   -6.379348|   -8.560709|    0.824252|    0.012000|
|        5393|   -6.379952|   -8.563507|    0.824252|    0.012000|
|        5394|   -6.380326|   -8.565819|    0.824252|    0.012000|
|        5395|   -6.380498|   -8.567633|    0.824252|    0.012000|
|        5396|   -6.380495|   -8.568934|    0.824252|    0.012000|
|        5397|   -6.380340|   -8.569715|    0.824252|    0.012000|
|        5398|   -6.380054|   -8.569973|    0.824253|    0.012000|
|        5399|   -6.379657|   -8.569708|    0.824253|    0.012000|
|        5400|   -6.379164|   -8.568930|    0.824253|    0.012000|
|        5401|   -6.378589|   -8.567652|    0.824253|    0.011999|
|        5402|   -6.377943|   -8.565897|    0.824253|    0.011999|
|        5403|   -6.377234|   -8.563693|    0.824254|    0.011999|
|        5404|   -6.376469|   -8.561074|    0.824254|    0.011999|
|        5405|   -6.375655|   -8.558079|    0.824254|    0.011999|
|        5406|   -6.374795|   -8.554752|    0.824254|    0.011999|
|        5407|   -6.373893|   -8.551141|    0.824255|    0.011999|
|        5408|   -6.372952|   -8.547293|    0.824255|    0.011999|
|        5409|   -6.371973|   -8.543259|    0.824255|    0.011999|
|        5410|   -6.370960|   -8.539088|    0.824255|    0.011999|
|        5411|   -6.369914|   -8.534827|    0.824255|    0.011998|
|        5412|   -6.368838|   -8.530522|    0.824256|    0.011998|
|        5413|   -6.367736|   -8.526216|    0.824256|    0.011998|
|        5414|   -6.366609|   -8.521948|    0.824256|    0.011998|
|        5415|   -6.365463|   -8.517753|    0.824256|    0.011998|
|        5416|   -6.364302|   -8.513662|    0.824257|    0.011998|
|        5417|   -6.363134|   -8.509701|    0.824257|    0.011998|
|        5418|   -6.361961|   -8.505895|    0.824257|    0.011998|
|        5419|   -6.360790|   -8.502262|    0.824257|    0.011998|
|        5420|   -6.359627|   -8.498816|    0.824257|    0.011998|
|        5421|   -6.358481|   -8.495566|    0.824258|    0.011998|
|        5422|   -6.357359|   -8.492517|    0.824258|    0.011998|
|        5423|   -6.356270|   -8.489673|    0.824258|    0.011998|
|        5424|   -6.355226|   -8.487032|    0.824258|    0.011998|
|        5425|   -6.354236|   -8.484592|    0.824258|    0.011998|
|        5426|   -6.353312|   -8.482349|    0.824259|    0.011998|
|        5427|   -6.352468|   -8.480297|    0.824259|    0.011998|
|        5428|   -6.351715|   -8.478429|    0.824259|    0.011998|
|        5429|   -6.351069|   -8.476740|    0.824259|    0.011998|
|        5430|   -6.350543|   -8.475220|    0.824259|    0.011998|
|        5431|   -6.350152|   -8.473861|    0.824259|    0.011998|
|        5432|   -6.349911|   -8.472657|    0.824260|    0.011998|
|        5433|   -6.349836|   -8.471597|    0.824260|    0.011998|
|        5434|   -6.349942|   -8.470675|    0.824260|    0.011998|
|        5435|   -6.350244|   -8.469882|    0.824260|    0.011998|
|        5436|   -6.350756|   -8.469212|    0.824260|    0.011998|
|        5437|   -6.351493|   -8.468658|    0.824260|    0.011998|
|        5438|   -6.352468|   -8.468214|    0.824260|    0.011998|
|        5439|   -6.353692|   -8.467875|    0.824261|    0.011998|
|        5440|   -6.355177|   -8.467636|    0.824261|    0.011998|
|        5441|   -6.356930|   -8.467494|    0.824261|    0.011998|
|        5442|   -6.358961|   -8.467445|    0.824261|    0.011998|
|        5443|   -6.361274|   -8.467485|    0.824261|    0.011998|
|        5444|   -6.363871|   -8.467612|    0.824261|    0.011998|
|        5445|   -6.366753|   -8.467822|    0.824261|    0.011998|
|        5446|   -6.369919|   -8.468112|    0.824261|    0.011998|
|        5447|   -6.373362|   -8.468479|    0.824261|    0.011998|
|        5448|   -6.377076|   -8.468921|    0.824262|    0.011998|
|        5449|   -6.381047|   -8.469433|    0.824262|    0.011998|
|        5450|   -6.385263|   -8.470013|    0.824262|    0.011998|
|        5451|   -6.389705|   -8.470656|    0.824262|    0.011998|
|        5452|   -6.394350|   -8.471360|    0.824262|    0.011999|
|        5453|   -6.399175|   -8.472119|    0.824262|    0.011999|
|        5454|   -6.404151|   -8.472930|    0.824262|    0.011999|
|        5455|   -6.409246|   -8.473789|    0.824262|    0.011999|
|        5456|   -6.414425|   -8.474691|    0.824262|    0.011999|
|        5457|   -6.419649|   -8.475633|    0.824262|    0.011999|
|        5458|   -6.424879|   -8.476609|    0.824262|    0.011999|
|        5459|   -6.430073|   -8.477617|    0.824262|    0.011999|
|        5460|   -6.435186|   -8.478651|    0.824262|    0.011999|
|        5461|   -6.440175|   -8.479708|    0.824262|    0.011999|
|        5462|   -6.444995|   -8.480785|    0.824262|    0.011999|
|        5463|   -6.449603|   -8.481877|    0.824262|    0.011999|
|        5464|   -6.453958|   -8.482983|    0.824262|    0.012000|
|        5465|   -6.458022|   -8.484098|    0.824262|    0.012000|
|        5466|   -6.461761|   -8.485220|    0.824262|    0.012000|
|        5467|   -6.465148|   -8.486347|    0.824262|    0.012000|
|        5468|   -6.468157|   -8.487477|    0.824262|    0.012000|
|        5469|   -6.470773|   -8.488606|    0.824262|    0.012000|
|        5470|   -6.472986|   -8.489734|    0.824262|    0.012000|
|        5471|   -6.474793|   -8.490858|    0.824262|    0.012000|
|        5472|   -6.476197|   -8.491976|    0.824262|    0.012000|
|        5473|   -6.477210|   -8.493086|    0.824262|    0.012000|
|        5474|   -6.477848|   -8.494186|    0.824262|    0.012000|
|        5475|   -6.478134|   -8.495275|    0.824262|    0.012000|
|        5476|   -6.478095|   -8.496349|    0.824262|    0.012000|
|        5477|   -6.477763|   -8.497406|    0.824262|    0.012001|
|        5478|   -6.477170|   -8.498445|    0.824262|    0.012001|
|        5479|   -6.476354|   -8.499461|    0.824262|    0.012001|
|        5480|   -6.475351|   -8.500453|    0.824262|    0.012001|
|        5481|   -6.474200|   -8.501418|    0.824262|    0.012001|
|        5482|   -6.472936|   -8.502352|    0.824262|    0.012001|
|        5483|   -6.471597|   -8.503253|    0.824262|    0.012001|
|        5484|   -6.470217|   -8.504118|    0.824262|    0.012001|
|        5485|   -6.468828|   -8.504944|    0.824262|    0.012001|
|        5486|   -6.467462|   -8.505729|    0.824262|    0.012001|
|        5487|   -6.466145|   -8.506469|    0.824262|    0.012001|
|        5488|   -6.464904|   -8.507163|    0.824262|    0.012001|
|        5489|   -6.463762|   -8.507808|    0.824262|    0.012001|
|        5490|   -6.462739|   -8.508404|    0.824262|    0.012001|
|        5491|   -6.461852|   -8.508948|    0.824262|    0.012001|
|        5492|   -6.461117|   -8.509440|    0.824262|    0.012001|
|        5493|   -6.460548|   -8.509880|    0.824262|    0.012001|
|        5494|   -6.460154|   -8.510267|    0.824262|    0.012001|
|        5495|   -6.459945|   -8.510601|    0.824262|    0.012001|
|        5496|   -6.459927|   -8.510883|    0.824262|    0.012001|
|        5497|   -6.460105|   -8.511115|    0.824262|    0.012001|
|        5498|   -6.460484|   -8.511297|    0.824262|    0.012001|
|        5499|   -6.461065|   -8.511431|    0.824262|    0.011986|
+-----------------------------------------------------------------------+
|Fixed CL Mode (Finite Difference)       |Value                         |
+-----------------------------------------------------------------------+
|Delta CL / Delta AoA                    |0.261822                      |
|Delta CD / Delta CL                     |0.0211487                     |
|Delta CMz / Delta CL                    |0.0231415                     |
+-----------------------------------------------------------------------+
Writing Flow Meta-Data file: flow.meta

----------------------------- Solver Exit -------------------------------

Maximum number of iterations reached (ITER = 5500) before convergence.
+-----------------------------------------------------------------------+
|      Convergence Field     |     Value    |   Criterion  |  Converged |
+-----------------------------------------------------------------------+
|                    rms[Rho]|      -6.46107|         < -12|          No|
+-----------------------------------------------------------------------+
-------------------------------------------------------------------------

--------------------------- Finalizing Solver ---------------------------
Deleted CNumerics container.
Deleted CIntegration container.
Deleted CSolver container.
Deleted CIteration container.
Deleted CInterface container.
Deleted CGeometry container.
Deleted CFreeFormDefBox class.
Deleted CSurfaceMovement class.
Deleted CVolumetricMovement class.
Deleted CConfig container.
Deleted nInst container.
Deleted COutput class.
-------------------------------------------------------------------------

------------------------- Exit Success (SU2_CFD) ------------------------


-------------------------------------------------------------------------
|    ___ _   _ ___                                                      |
|   / __| | | |_  )   Release 8.0.0 "Harrier"                           |
|   \__ \ |_| |/ /                                                      |
|   |___/\___//___|   Suite (Solution Exporting Code)                   |
|                                                                       |
-------------------------------------------------------------------------
| SU2 Project Website: https://su2code.github.io                        |
|                                                                       |
| The SU2 Project is maintained by the SU2 Foundation                   |
| (http://su2foundation.org)                                            |
-------------------------------------------------------------------------
| Copyright 2012-2023, SU2 Contributors                                 |
|                                                                       |
| SU2 is free software; you can redistribute it and/or                  |
| modify it under the terms of the GNU Lesser General Public            |
| License as published by the Free Software Foundation; either          |
| version 2.1 of the License, or (at your option) any later version.    |
|                                                                       |
| SU2 is distributed in the hope that it will be useful,                |
| but WITHOUT ANY WARRANTY; without even the implied warranty of        |
| MERCHANTABILITY or FITNESS FOR A PARTICULAR PURPOSE. See the GNU      |
| Lesser General Public License for more details.                       |
|                                                                       |
| You should have received a copy of the GNU Lesser General Public      |
| License along with SU2. If not, see <http://www.gnu.org/licenses/>.   |
-------------------------------------------------------------------------

----------------- Physical Case Definition ( Zone 0 ) -------------------
Input mesh file name: mesh_RAE2822_turb_deform.su2

-------------------- Output Information ( Zone 0 ) ----------------------
The tabular file format is CSV (.csv).
Flow variables file name: flow.

------------- Config File Boundary Information ( Zone 0 ) ---------------
+-----------------------------------------------------------------------+
|                        Marker Type|                        Marker Name|
+-----------------------------------------------------------------------+
|                          Far-field|                           FARFIELD|
+-----------------------------------------------------------------------+
|                     Heat flux wall|                            AIRFOIL|
+-----------------------------------------------------------------------+
Two dimensional problem.
13937 grid points before partitioning.
22842 volume elements before partitioning.
2 surface markers.
192 boundary elements in index 0 (Marker = AIRFOIL).
40 boundary elements in index 1 (Marker = FARFIELD).
Executing the partitioning functions.
Building the graph adjacency structure.
Calling ParMETIS... graph partitioning complete (831 edge cuts).
Distributing ParMETIS coloring.
Rebalancing vertices.
Rebalancing volume element connectivity.
Rebalancing markers and surface elements.
14875 vertices including ghost points. 
23674 interior elements including halo cells. 
18780 triangles.
4894 quadrilaterals.
Establishing MPI communication patterns.
Identify vertices.
Storing a mapping from global to local point index.

------------------------- Solution Postprocessing -----------------------
Reading and storing the solution from restart_flow.
Volume output fields: COORDINATES, SOLUTION
  Info: Ignoring the following screen output fields:
  RMS_DENSITY, RMS_NU_TILDE, LIFT, DRAG
Screen output fields: INNER_ITER
  Info: Ignoring the following history output groups:
  RMS_RES, AERO_COEFF
History output group(s): ITER
Warning: No (valid) fields chosen for convergence monitoring. Convergence monitoring inactive.
Warning: No (valid) fields chosen for time convergence monitoring. Time convergence monitoring inactive.
|Paraview                           |flow.vtu                           |
|Paraview surface                   |surface_flow.vtu                   |
|CSV file                           |surface_flow.csv                   |

------------------------- Finalize Solver -------------------------
Deleted CGeometry container.
Deleted CSolver class.
Deleted CConfig container.
Deleted COutput class.

Completed in 0.015415 seconds on 6 cores.

------------------------- Exit Success (SU2_SOL) ------------------------

