
-------------------------------------------------------------------------
|    ___ _   _ ___                                                      |
|   / __| | | |_  )   Release 8.0.0 "Harrier"                           |
|   \__ \ |_| |/ /                                                      |
|   |___/\___//___|   Suite (Computational Fluid Dynamics Code)         |
|                                                                       |
-------------------------------------------------------------------------
| SU2 Project Website: https://su2code.github.io                        |
|                                                                       |
| The SU2 Project is maintained by the SU2 Foundation                   |
| (http://su2foundation.org)                                            |
-------------------------------------------------------------------------
| Copyright 2012-2023, SU2 Contributors                                 |
|                                                                       |
| SU2 is free software; you can redistribute it and/or                  |
| modify it under the terms of the GNU Lesser General Public            |
| License as published by the Free Software Foundation; either          |
| version 2.1 of the License, or (at your option) any later version.    |
|                                                                       |
| SU2 is distributed in the hope that it will be useful,                |
| but WITHOUT ANY WARRANTY; without even the implied warranty of        |
| MERCHANTABILITY or FITNESS FOR A PARTICULAR PURPOSE. See the GNU      |
| Lesser General Public License for more details.                       |
|                                                                       |
| You should have received a copy of the GNU Lesser General Public      |
| License along with SU2. If not, see <http://www.gnu.org/licenses/>.   |
-------------------------------------------------------------------------

Parsing config file for zone 0

----------------- Physical Case Definition ( Zone 0 ) -------------------
Compressible RANS equations.
Turbulence model: Spalart-Allmaras-noft2
Hybrid RANS/LES: No Hybrid RANS/LES
Mach number: 0.734.
Angle of attack (AoA): 2.31 deg, and angle of sideslip (AoS): 0 deg.
Reynolds number: 6.5e+06. Reference length 1.
Fixed CL mode, target value: 0.824.
Reading and writing binary SU2 native restart files.
Read flow solution from: solution_flow.dat.
Dimensional simulation.
The reference area is 1 m^2.
The semi-span will be computed using the max y(3D) value.
The reference length is 1 m.
Reference origin for moment evaluation is (0.25, 0, 0).
Surface(s) where the force coefficients are evaluated: AIRFOIL.

Surface(s) plotted in the output file: AIRFOIL.
Surface(s) affected by the design variables: AIRFOIL.
Input mesh file name: mesh_RAE2822_turb_deform.su2

--------------- Space Numerical Integration ( Zone 0 ) ------------------
Jameson-Schmidt-Turkel scheme (2nd order in space) for the flow inviscid terms.
JST viscous coefficients (2nd & 4th): 0.5, 0.02.
The method includes a grid stretching correction (p = 0.3).
Scalar upwind solver for the turbulence model.
First order integration in space.
Average of gradients with correction (viscous flow terms).
Average of gradients with correction (viscous turbulence terms).
Gradient for viscous and source terms: inverse-distance weighted Least-Squares.

--------------- Time Numerical Integration  ( Zone 0 ) ------------------
Local time stepping (steady state simulation).
Euler implicit method for the flow equations.
FGMRES is used for solving the linear system.
Using a ILU(0) preconditioning.
Convergence criteria of the linear solver: 1e-06.
Max number of linear iterations: 10.
No CFL adaptation.
Courant-Friedrichs-Lewy number:       10
Euler implicit time integration for the turbulence model.

------------------ Convergence Criteria  ( Zone 0 ) ---------------------
Maximum number of solver subiterations: 5500.
Begin convergence monitoring at iteration 10.
Residual minimum value: 1e-12.
Cauchy series min. value: 1e-06.
Number of Cauchy elements: 100.
Begin windowed time average at iteration 0.

-------------------- Output Information ( Zone 0 ) ----------------------
File writing frequency: 
+------------------------------------+
|                     File| Frequency|
+------------------------------------+
|                  RESTART|     10000|
|                 PARAVIEW|     10000|
|         SURFACE_PARAVIEW|     10000|
|              SURFACE_CSV|     10000|
+------------------------------------+
Writing the convergence history file every 1 inner iterations.
Writing the screen convergence history every 1 inner iterations.
The tabular file format is CSV (.csv).
Convergence history file name: history_direct.
Forces breakdown file name: forces_breakdown.dat.
Surface file name: surface_flow.
Volume file name: flow.
Restart file name: restart_flow.dat.

------------- Config File Boundary Information ( Zone 0 ) ---------------
+-----------------------------------------------------------------------+
|                        Marker Type|                        Marker Name|
+-----------------------------------------------------------------------+
|                          Far-field|                           FARFIELD|
+-----------------------------------------------------------------------+
|                     Heat flux wall|                            AIRFOIL|
+-----------------------------------------------------------------------+

-------------------- Output Preprocessing ( Zone 0 ) --------------------

WARNING: SURFACE_PRESSURE_DROP can only be computed for at least 2 surfaces (outlet, inlet, ...)

Screen output fields: INNER_ITER, RMS_DENSITY, RMS_NU_TILDE, LIFT, DRAG
History output group(s): ITER, RMS_RES, AERO_COEFF
Convergence field(s): RMS_DENSITY
Warning: No (valid) fields chosen for time convergence monitoring. Time convergence monitoring inactive.
Volume output fields: COORDINATES, SOLUTION, PRIMITIVE

------------------- Geometry Preprocessing ( Zone 0 ) -------------------
Two dimensional problem.
13937 grid points before partitioning.
22842 volume elements before partitioning.
2 surface markers.
192 boundary elements in index 0 (Marker = AIRFOIL).
40 boundary elements in index 1 (Marker = FARFIELD).
Executing the partitioning functions.
Building the graph adjacency structure.
Calling ParMETIS... graph partitioning complete (831 edge cuts).
Distributing ParMETIS coloring.
Rebalancing vertices.
Rebalancing volume element connectivity.
Rebalancing markers and surface elements.
14875 vertices including ghost points. 
23674 interior elements including halo cells. 
18780 triangles.
4894 quadrilaterals.
Establishing MPI communication patterns.
Setting point connectivity.
Renumbering points (Reverse Cuthill McKee Ordering).
Recomputing point connectivity.
Setting element connectivity.
Checking the numerical grid orientation.
All volume elements are correctly orientend.
All surface elements are correctly orientend.
Identifying edges and vertices.
Setting the control volume structure.
Area of the computational grid: 32209.9.
Searching for the closest normal neighbors to the surfaces.
Storing a mapping from global to local point index.
Compute the surface curvature.
Max K: 172.611. Mean K: 7.79248. Standard deviation K: 23.7591.
Checking for periodicity.
Computing mesh quality statistics for the dual control volumes.
+--------------------------------------------------------------+
|           Mesh Quality Metric|        Minimum|        Maximum|
+--------------------------------------------------------------+
|    Orthogonality Angle (deg.)|         75.155|        89.9991|
|     CV Face Area Aspect Ratio|        1.00371|        3358.53|
|           CV Sub-Volume Ratio|        1.00047|           1215|
+--------------------------------------------------------------+
Finding max control volume width.
Communicating number of neighbors.
Wetted area = 2.02195 m.
Area projection in the x-plane = 0.124813 m, y-plane = 0.995873 m.
Max. coordinate in the x-direction = 1 m, y-direction = 0.0621518 m.
Min. coordinate in the x-direction = 0 m, y-direction = -0.0599016 m.
Computing wall distances.

-------------------- Solver Preprocessing ( Zone 0 ) --------------------
WARNING: AoA in the solution file (2.79035 deg.) +
         AoA offset in mesh file (0 deg.) = 2.79035 deg.
WARNING: SU2 will use the dCD/dCL provided in the direct solution file: 0.017256.
WARNING: SU2 will use the dCMz/dCL provided in the direct solution file: -0.00137112.
Viscous flow: Computing pressure using the ideal gas law
based on the free-stream temperature and a density computed
from the Reynolds number.
Force coefficients computed using free-stream values.

-- Models:
+------------------------------------------------------------------------------+
|          Viscosity Model|        Conductivity Model|              Fluid Model|
+------------------------------------------------------------------------------+
|               SUTHERLAND|          CONSTANT_PRANDTL|             STANDARD_AIR|
+------------------------------------------------------------------------------+
-- Fluid properties:
+------------------------------------------------------------------------------+
|                  Name|    Dim. value|    Ref. value|      Unit|Non-dim. value|
+------------------------------------------------------------------------------+
|        Ref. Viscosity|     1.716e-05|             1|   N.s/m^2|     1.716e-05|
|      Sutherland Temp.|        273.15|             1|         K|        273.15|
|     Sutherland Const.|         110.4|             1|         K|         110.4|
+------------------------------------------------------------------------------+
|        Prandtl (Lam.)|             -|             -|         -|          0.71|
|       Prandtl (Turb.)|             -|             -|         -|           0.9|
+------------------------------------------------------------------------------+
|          Gas Constant|       287.058|             1|  N.m/kg.K|       287.058|
|      Spec. Heat Ratio|             -|             -|         -|           1.4|
+------------------------------------------------------------------------------+
-- Initial and free-stream conditions:
+------------------------------------------------------------------------------+
|                  Name|    Dim. value|    Ref. value|      Unit|Non-dim. value|
+------------------------------------------------------------------------------+
|       Static Pressure|         38515|             1|        Pa|         38515|
|               Density|      0.465631|             1|    kg/m^3|      0.465631|
|           Temperature|        288.15|             1|         K|        288.15|
|          Total Energy|        237984|             1|   m^2/s^2|        237984|
|            Velocity-X|       249.482|             1|       m/s|       249.482|
|            Velocity-Y|       12.1596|             1|       m/s|       12.1596|
|    Velocity Magnitude|       249.778|             1|       m/s|       249.778|
+------------------------------------------------------------------------------+
|             Viscosity|    1.7893e-05|             1|   N.s/m^2|    1.7893e-05|
|          Conductivity|             -|             1|   W/m^2.K|             -|
|     Turb. Kin. Energy|       233.959|             1|   m^2/s^2|       233.959|
|     Spec. Dissipation|        608834|             1|       1/s|        608834|
+------------------------------------------------------------------------------+
|           Mach Number|             -|             -|         -|         0.734|
|       Reynolds Number|             -|             -|         -|       6.5e+06|
+------------------------------------------------------------------------------+
Initialize Jacobian structure (Navier-Stokes). MG level: 0.
Initialize Jacobian structure (SA model).

------------------- Numerics Preprocessing ( Zone 0 ) -------------------

----------------- Integration Preprocessing ( Zone 0 ) ------------------

------------------- Iteration Preprocessing ( Zone 0 ) ------------------
Euler/Navier-Stokes/RANS fluid iteration.

------------------------------ Begin Solver -----------------------------

Simulation Run using the Single-zone Driver
WARNING: SU2 was not compiled for an AVX-capable architecture. Performance could be better,
         see https://su2code.github.io/docs_v7/Build-SU2-Linux-MacOS/#compiler-optimizations
+----------------------------------------------------------------+
|  Inner_Iter|    rms[Rho]|     rms[nu]|          CL|          CD|
+----------------------------------------------------------------+
|           0|   -4.870721|   -6.114589|    0.824028|    0.011905|
|           1|   -4.928760|   -6.218264|    0.824029|    0.011894|
|           2|   -4.991724|   -6.334208|    0.824016|    0.011892|
|           3|   -5.042647|   -6.453544|    0.823997|    0.011893|
|           4|   -5.080418|   -6.566602|    0.823979|    0.011895|
|           5|   -5.105280|   -6.662620|    0.823965|    0.011896|
|           6|   -5.118282|   -6.731630|    0.823957|    0.011895|
|           7|   -5.122516|   -6.767067|    0.823954|    0.011894|
|           8|   -5.121409|   -6.771150|    0.823956|    0.011892|
|           9|   -5.116870|   -6.755683|    0.823962|    0.011891|
|          10|   -5.109346|   -6.734806|    0.823972|    0.011892|
|          11|   -5.098938|   -6.718103|    0.823985|    0.011894|
|          12|   -5.086181|   -6.709861|    0.824000|    0.011898|
|          13|   -5.072105|   -6.710847|    0.824015|    0.011903|
|          14|   -5.057965|   -6.719445|    0.824031|    0.011909|
|          15|   -5.044979|   -6.731733|    0.824044|    0.011916|
|          16|   -5.034148|   -6.741475|    0.824056|    0.011923|
|          17|   -5.026091|   -6.741743|    0.824064|    0.011931|
|          18|   -5.020923|   -6.728792|    0.824070|    0.011939|
|          19|   -5.018227|   -6.705105|    0.824071|    0.011946|
|          20|   -5.017170|   -6.677264|    0.824069|    0.011953|
|          21|   -5.016747|   -6.651785|    0.824065|    0.011960|
|          22|   -5.016091|   -6.632910|    0.824058|    0.011965|
|          23|   -5.014701|   -6.622570|    0.824049|    0.011970|
|          24|   -5.012506|   -6.621065|    0.824039|    0.011974|
|          25|   -5.009741|   -6.627620|    0.824029|    0.011977|
|          26|   -5.006752|   -6.640722|    0.824019|    0.011980|
|          27|   -5.003820|   -6.658283|    0.824009|    0.011982|
|          28|   -5.001089|   -6.677790|    0.824000|    0.011984|
|          29|   -4.998573|   -6.696596|    0.823992|    0.011985|
|          30|   -4.996213|   -6.712389|    0.823985|    0.011987|
|          31|   -4.993932|   -6.723706|    0.823979|    0.011988|
|          32|   -4.991668|   -6.730225|    0.823973|    0.011989|
|          33|   -4.989390|   -6.732634|    0.823968|    0.011990|
|          34|   -4.987086|   -6.732162|    0.823963|    0.011991|
|          35|   -4.984755|   -6.730070|    0.823959|    0.011991|
|          36|   -4.982399|   -6.727323|    0.823954|    0.011992|
|          37|   -4.980021|   -6.724477|    0.823948|    0.011993|
|          38|   -4.977628|   -6.721723|    0.823943|    0.011994|
|          39|   -4.975237|   -6.719000|    0.823936|    0.011995|
|          40|   -4.972868|   -6.716137|    0.823929|    0.011996|
|          41|   -4.970551|   -6.712970|    0.823921|    0.011997|
|          42|   -4.968315|   -6.709436|    0.823912|    0.011997|
|          43|   -4.966184|   -6.705611|    0.823903|    0.011998|
|          44|   -4.964170|   -6.701704|    0.823893|    0.011999|
|          45|   -4.962274|   -6.698017|    0.823882|    0.011999|
|          46|   -4.960481|   -6.694885|    0.823871|    0.012000|
|          47|   -4.958763|   -6.692615|    0.823860|    0.012000|
|          48|   -4.957083|   -6.691444|    0.823849|    0.012001|
|          49|   -4.955402|   -6.691505|    0.823838|    0.012001|
|          50|   -4.953684|   -6.692825|    0.823827|    0.012001|
|          51|   -4.951909|   -6.695323|    0.823816|    0.012000|
|          52|   -4.950072|   -6.698835|    0.823806|    0.012000|
|          53|   -4.948187|   -6.703127|    0.823797|    0.012000|
|          54|   -4.946290|   -6.707935|    0.823788|    0.011999|
|          55|   -4.944432|   -6.712989|    0.823780|    0.011999|
|          56|   -4.942673|   -6.718041|    0.823773|    0.011998|
|          57|   -4.941074|   -6.722891|    0.823766|    0.011997|
|          58|   -4.939691|   -6.727397|    0.823761|    0.011996|
|          59|   -4.938565|   -6.731479|    0.823755|    0.011995|
|          60|   -4.937722|   -6.735116|    0.823751|    0.011994|
|          61|   -4.937163|   -6.738336|    0.823747|    0.011992|
|          62|   -4.936875|   -6.741201|    0.823743|    0.011991|
|          63|   -4.936835|   -6.743796|    0.823740|    0.011989|
|          64|   -4.937005|   -6.746220|    0.823737|    0.011988|
|          65|   -4.937353|   -6.748571|    0.823734|    0.011986|
|          66|   -4.937849|   -6.750943|    0.823732|    0.011985|
|          67|   -4.938477|   -6.753412|    0.823730|    0.011983|
|          68|   -4.939229|   -6.756031|    0.823728|    0.011982|
|          69|   -4.940109|   -6.758828|    0.823727|    0.011980|
|          70|   -4.941127|   -6.761802|    0.823725|    0.011979|
|          71|   -4.942294|   -6.764927|    0.823724|    0.011977|
|          72|   -4.943618|   -6.768156|    0.823723|    0.011976|
|          73|   -4.945103|   -6.771438|    0.823722|    0.011974|
|          74|   -4.946743|   -6.774720|    0.823722|    0.011973|
|          75|   -4.948528|   -6.777963|    0.823721|    0.011971|
|          76|   -4.950443|   -6.781151|    0.823721|    0.011970|
|          77|   -4.952477|   -6.784287|    0.823720|    0.011969|
|          78|   -4.954620|   -6.787400|    0.823720|    0.011968|
|          79|   -4.956869|   -6.790537|    0.823720|    0.011967|
|          80|   -4.959230|   -6.793755|    0.823719|    0.011966|
|          81|   -4.961716|   -6.797117|    0.823719|    0.011965|
|          82|   -4.964342|   -6.800679|    0.823719|    0.011964|
|          83|   -4.967122|   -6.804485|    0.823718|    0.011963|
|          84|   -4.970066|   -6.808568|    0.823717|    0.011962|
|          85|   -4.973173|   -6.812944|    0.823717|    0.011961|
|          86|   -4.976430|   -6.817614|    0.823716|    0.011961|
|          87|   -4.979812|   -6.822566|    0.823715|    0.011960|
|          88|   -4.983277|   -6.827778|    0.823714|    0.011959|
|          89|   -4.986777|   -6.833224|    0.823713|    0.011958|
|          90|   -4.990254|   -6.838871|    0.823712|    0.011958|
|          91|   -4.993650|   -6.844689|    0.823711|    0.011957|
|          92|   -4.996912|   -6.850645|    0.823711|    0.011956|
|          93|   -4.999994|   -6.856714|    0.823710|    0.011955|
|          94|   -5.002862|   -6.862873|    0.823709|    0.011955|
|          95|   -5.005501|   -6.869101|    0.823709|    0.011954|
|          96|   -5.007907|   -6.875385|    0.823709|    0.011954|
|          97|   -5.010094|   -6.881711|    0.823709|    0.011954|
|          98|   -5.012090|   -6.888069|    0.823710|    0.011953|
|          99|   -5.013935|   -6.894447|    0.823710|    0.011953|
|         100|   -5.015673|   -6.900832|    0.823711|    0.011953|
|         101|   -5.017356|   -6.907207|    0.823712|    0.011974|
+-----------------------------------------------------------------------+
|Fixed CL Mode                           |Value                         |
+-----------------------------------------------------------------------+
|Current CL                              |0.823712                      |
|Target CL                               |0.824                         |
|Previous AOA                            |2.79035                       |
|Changed AoA by                          |0.00144296                    |
+-----------------------------------------------------------------------+
+----------------------------------------------------------------+
|  Inner_Iter|    rms[Rho]|     rms[nu]|          CL|          CD|
+----------------------------------------------------------------+
|         102|   -3.034128|   -6.847660|    0.823714|    0.011974|
|         103|   -3.419105|   -6.884596|    0.823716|    0.011974|
|         104|   -3.665197|   -6.900142|    0.823718|    0.011974|
|         105|   -3.745566|   -6.911271|    0.823720|    0.011975|
|         106|   -3.799943|   -6.920790|    0.823722|    0.011975|
|         107|   -3.870153|   -6.929295|    0.823725|    0.011976|
|         108|   -3.956784|   -6.937060|    0.823727|    0.011977|
|         109|   -4.046734|   -6.944140|    0.823730|    0.011978|
|         110|   -4.122945|   -6.950580|    0.823733|    0.011979|
|         111|   -4.177041|   -6.956389|    0.823735|    0.011980|
|         112|   -4.211356|   -6.961585|    0.823738|    0.011981|
|         113|   -4.230515|   -6.966272|    0.823740|    0.011982|
|         114|   -4.238804|   -6.970604|    0.823742|    0.011983|
|         115|   -4.242037|   -6.974700|    0.823744|    0.011985|
|         116|   -4.246507|   -6.978605|    0.823746|    0.011986|
|         117|   -4.256350|   -6.982311|    0.823747|    0.011987|
|         118|   -4.272439|   -6.985806|    0.823748|    0.011989|
|         119|   -4.292933|   -6.989110|    0.823749|    0.011990|
|         120|   -4.314701|   -6.992263|    0.823750|    0.011991|
|         121|   -4.335105|   -6.995313|    0.823751|    0.011993|
|         122|   -4.353272|   -6.998292|    0.823751|    0.011994|
|         123|   -4.370033|   -7.001208|    0.823751|    0.011996|
|         124|   -4.386788|   -7.004065|    0.823751|    0.011997|
|         125|   -4.404422|   -7.006862|    0.823751|    0.011998|
|         126|   -4.422913|   -7.009610|    0.823751|    0.012000|
|         127|   -4.441551|   -7.012327|    0.823751|    0.012001|
|         128|   -4.459343|   -7.015037|    0.823750|    0.012002|
|         129|   -4.475348|   -7.017746|    0.823750|    0.012004|
|         130|   -4.488880|   -7.020475|    0.823750|    0.012005|
|         131|   -4.499641|   -7.023240|    0.823750|    0.012006|
|         132|   -4.507823|   -7.026098|    0.823750|    0.012008|
|         133|   -4.514114|   -7.029080|    0.823750|    0.012009|
|         134|   -4.519539|   -7.032214|    0.823750|    0.012011|
|         135|   -4.525194|   -7.035524|    0.823750|    0.012012|
|         136|   -4.531988|   -7.039025|    0.823751|    0.012014|
|         137|   -4.540479|   -7.042729|    0.823752|    0.012015|
|         138|   -4.550812|   -7.046625|    0.823753|    0.012017|
|         139|   -4.562722|   -7.050699|    0.823754|    0.012018|
|         140|   -4.575579|   -7.054933|    0.823755|    0.012020|
|         141|   -4.588488|   -7.059288|    0.823757|    0.012021|
|         142|   -4.600465|   -7.063743|    0.823759|    0.012023|
|         143|   -4.610685|   -7.068272|    0.823761|    0.012025|
|         144|   -4.618726|   -7.072857|    0.823764|    0.012026|
|         145|   -4.624702|   -7.077467|    0.823767|    0.012028|
|         146|   -4.629208|   -7.082080|    0.823770|    0.012030|
|         147|   -4.633102|   -7.086667|    0.823773|    0.012032|
|         148|   -4.637251|   -7.091187|    0.823777|    0.012033|
|         149|   -4.642321|   -7.095599|    0.823781|    0.012035|
|         150|   -4.648678|   -7.099866|    0.823785|    0.012037|
|         151|   -4.656369|   -7.103959|    0.823789|    0.012038|
|         152|   -4.665179|   -7.107845|    0.823794|    0.012040|
|         153|   -4.674712|   -7.111521|    0.823800|    0.012042|
|         154|   -4.684498|   -7.114984|    0.823805|    0.012043|
|         155|   -4.694100|   -7.118244|    0.823811|    0.012045|
|         156|   -4.703196|   -7.121325|    0.823818|    0.012046|
|         157|   -4.711633|   -7.124242|    0.823825|    0.012048|
|         158|   -4.719420|   -7.127021|    0.823832|    0.012049|
|         159|   -4.726701|   -7.129691|    0.823839|    0.012051|
|         160|   -4.733684|   -7.132293|    0.823847|    0.012052|
|         161|   -4.740585|   -7.134865|    0.823856|    0.012053|
|         162|   -4.747582|   -7.137443|    0.823864|    0.012055|
|         163|   -4.754791|   -7.140068|    0.823873|    0.012056|
|         164|   -4.762264|   -7.142778|    0.823882|    0.012057|
|         165|   -4.770001|   -7.145610|    0.823892|    0.012058|
|         166|   -4.777970|   -7.148592|    0.823901|    0.012059|
|         167|   -4.786124|   -7.151742|    0.823911|    0.012060|
|         168|   -4.794413|   -7.155077|    0.823920|    0.012061|
|         169|   -4.802800|   -7.158603|    0.823930|    0.012062|
|         170|   -4.811255|   -7.162313|    0.823940|    0.012063|
|         171|   -4.819755|   -7.166185|    0.823949|    0.012063|
|         172|   -4.828276|   -7.170180|    0.823958|    0.012064|
|         173|   -4.836793|   -7.174245|    0.823967|    0.012064|
|         174|   -4.845270|   -7.178314|    0.823976|    0.012065|
|         175|   -4.853661|   -7.182297|    0.823984|    0.012065|
|         176|   -4.861911|   -7.186093|    0.823992|    0.012065|
|         177|   -4.869955|   -7.189594|    0.823999|    0.012066|
|         178|   -4.877724|   -7.192686|    0.824005|    0.012066|
|         179|   -4.885148|   -7.195261|    0.824011|    0.012066|
|         180|   -4.892158|   -7.197226|    0.824016|    0.012066|
|         181|   -4.898690|   -7.198500|    0.824021|    0.012066|
|         182|   -4.904687|   -7.199029|    0.824025|    0.012066|
|         183|   -4.910104|   -7.198788|    0.824028|    0.012065|
|         184|   -4.914909|   -7.197788|    0.824030|    0.012065|
|         185|   -4.919086|   -7.196078|    0.824032|    0.012065|
|         186|   -4.922636|   -7.193738|    0.824033|    0.012064|
|         187|   -4.925578|   -7.190875|    0.824033|    0.012064|
|         188|   -4.927951|   -7.187617|    0.824032|    0.012063|
|         189|   -4.929809|   -7.184100|    0.824031|    0.012062|
|         190|   -4.931222|   -7.180467|    0.824029|    0.012062|
|         191|   -4.932269|   -7.176855|    0.824027|    0.012061|
|         192|   -4.933039|   -7.173396|    0.824024|    0.012060|
|         193|   -4.933626|   -7.170207|    0.824020|    0.012059|
|         194|   -4.934121|   -7.167388|    0.824016|    0.012058|
|         195|   -4.934616|   -7.165024|    0.824012|    0.012057|
|         196|   -4.935197|   -7.163179|    0.824007|    0.012056|
|         197|   -4.935942|   -7.161900|    0.824002|    0.012055|
|         198|   -4.936922|   -7.161213|    0.823996|    0.012054|
|         199|   -4.938199|   -7.161128|    0.823990|    0.012053|
|         200|   -4.939824|   -7.161633|    0.823985|    0.012051|
|         201|   -4.941840|   -7.162703|    0.823979|    0.012051|
+-----------------------------------------------------------------------+
|Fixed CL Mode                           |Value                         |
+-----------------------------------------------------------------------+
|Current CL                              |0.823979                      |
|Target CL                               |0.824                         |
|Previous AOA                            |2.79179                       |
|Changed AoA by                          |7.68934e-05                   |
+-----------------------------------------------------------------------+
+----------------------------------------------------------------+
|  Inner_Iter|    rms[Rho]|     rms[nu]|          CL|          CD|
+----------------------------------------------------------------+
|         202|   -4.295455|   -7.163510|    0.823973|    0.012050|
|         203|   -4.622903|   -7.165931|    0.823966|    0.012049|
|         204|   -4.768956|   -7.168520|    0.823960|    0.012048|
|         205|   -4.807926|   -7.171402|    0.823954|    0.012046|
|         206|   -4.835862|   -7.174515|    0.823948|    0.012045|
|         207|   -4.866819|   -7.177760|    0.823943|    0.012044|
|         208|   -4.897696|   -7.181032|    0.823937|    0.012043|
|         209|   -4.924010|   -7.184231|    0.823931|    0.012041|
|         210|   -4.944275|   -7.187261|    0.823926|    0.012040|
|         211|   -4.959820|   -7.190031|    0.823921|    0.012039|
|         212|   -4.972352|   -7.192461|    0.823916|    0.012038|
|         213|   -4.982748|   -7.194481|    0.823912|    0.012037|
|         214|   -4.991385|   -7.196041|    0.823908|    0.012036|
|         215|   -4.998703|   -7.197110|    0.823904|    0.012035|
|         216|   -5.005295|   -7.197674|    0.823901|    0.012034|
|         217|   -5.011677|   -7.197744|    0.823898|    0.012033|
|         218|   -5.018089|   -7.197343|    0.823896|    0.012032|
|         219|   -5.024488|   -7.196517|    0.823894|    0.012031|
|         220|   -5.030706|   -7.195321|    0.823892|    0.012030|
|         221|   -5.036599|   -7.193820|    0.823891|    0.012030|
|         222|   -5.042111|   -7.192086|    0.823890|    0.012029|
|         223|   -5.047237|   -7.190200|    0.823890|    0.012028|
|         224|   -5.051955|   -7.188236|    0.823890|    0.012028|
|         225|   -5.056193|   -7.186253|    0.823890|    0.012027|
|         226|   -5.059850|   -7.184329|    0.823891|    0.012027|
|         227|   -5.062853|   -7.182533|    0.823893|    0.012027|
|         228|   -5.065191|   -7.180922|    0.823894|    0.012026|
|         229|   -5.066931|   -7.179552|    0.823897|    0.012026|
|         230|   -5.068202|   -7.178462|    0.823899|    0.012026|
|         231|   -5.069168|   -7.177681|    0.823902|    0.012026|
|         232|   -5.070002|   -7.177234|    0.823906|    0.012026|
|         233|   -5.070867|   -7.177132|    0.823909|    0.012026|
|         234|   -5.071897|   -7.177382|    0.823913|    0.012026|
|         235|   -5.073191|   -7.177974|    0.823918|    0.012026|
|         236|   -5.074807|   -7.178903|    0.823922|    0.012026|
|         237|   -5.076765|   -7.180148|    0.823927|    0.012026|
|         238|   -5.079059|   -7.181687|    0.823932|    0.012027|
|         239|   -5.081665|   -7.183492|    0.823937|    0.012027|
|         240|   -5.084553|   -7.185531|    0.823943|    0.012027|
|         241|   -5.087696|   -7.187777|    0.823948|    0.012028|
|         242|   -5.091070|   -7.190193|    0.823954|    0.012028|
|         243|   -5.094666|   -7.192752|    0.823960|    0.012029|
|         244|   -5.098486|   -7.195424|    0.823966|    0.012029|
|         245|   -5.102540|   -7.198184|    0.823971|    0.012030|
|         246|   -5.106845|   -7.201007|    0.823977|    0.012030|
|         247|   -5.111414|   -7.203873|    0.823983|    0.012031|
|         248|   -5.116253|   -7.206763|    0.823989|    0.012031|
|         249|   -5.121357|   -7.209666|    0.823994|    0.012032|
|         250|   -5.126710|   -7.212575|    0.824000|    0.012033|
|         251|   -5.132282|   -7.215488|    0.824005|    0.012033|
|         252|   -5.138036|   -7.218401|    0.824010|    0.012034|
|         253|   -5.143930|   -7.221313|    0.824015|    0.012035|
|         254|   -5.149920|   -7.224228|    0.824020|    0.012035|
|         255|   -5.155967|   -7.227150|    0.824024|    0.012036|
|         256|   -5.162032|   -7.230073|    0.824028|    0.012036|
|         257|   -5.168083|   -7.233006|    0.824033|    0.012037|
|         258|   -5.174091|   -7.235967|    0.824036|    0.012038|
|         259|   -5.180027|   -7.238963|    0.824040|    0.012038|
|         260|   -5.185864|   -7.241998|    0.824043|    0.012039|
|         261|   -5.191572|   -7.245084|    0.824046|    0.012039|
|         262|   -5.197118|   -7.248224|    0.824049|    0.012040|
|         263|   -5.202468|   -7.251423|    0.824052|    0.012040|
|         264|   -5.207584|   -7.254677|    0.824054|    0.012041|
|         265|   -5.212427|   -7.257981|    0.824057|    0.012041|
|         266|   -5.216958|   -7.261330|    0.824059|    0.012041|
|         267|   -5.221136|   -7.264722|    0.824061|    0.012042|
|         268|   -5.224927|   -7.268160|    0.824062|    0.012042|
|         269|   -5.228295|   -7.271640|    0.824064|    0.012042|
|         270|   -5.231212|   -7.275158|    0.824065|    0.012043|
|         271|   -5.233655|   -7.278714|    0.824067|    0.012043|
|         272|   -5.235605|   -7.282309|    0.824068|    0.012043|
|         273|   -5.237054|   -7.285944|    0.824069|    0.012043|
|         274|   -5.237997|   -7.289625|    0.824070|    0.012044|
|         275|   -5.238442|   -7.293364|    0.824071|    0.012044|
|         276|   -5.238401|   -7.297185|    0.824072|    0.012044|
|         277|   -5.237895|   -7.301100|    0.824073|    0.012044|
|         278|   -5.236954|   -7.305124|    0.824073|    0.012044|
|         279|   -5.235613|   -7.309271|    0.824074|    0.012044|
|         280|   -5.233912|   -7.313557|    0.824075|    0.012044|
|         281|   -5.231898|   -7.317998|    0.824075|    0.012044|
|         282|   -5.229616|   -7.322606|    0.824076|    0.012044|
|         283|   -5.227117|   -7.327394|    0.824077|    0.012044|
|         284|   -5.224451|   -7.332369|    0.824077|    0.012044|
|         285|   -5.221666|   -7.337538|    0.824078|    0.012044|
|         286|   -5.218809|   -7.342901|    0.824078|    0.012044|
|         287|   -5.215923|   -7.348455|    0.824079|    0.012044|
|         288|   -5.213050|   -7.354191|    0.824079|    0.012044|
|         289|   -5.210227|   -7.360095|    0.824080|    0.012044|
|         290|   -5.207485|   -7.366144|    0.824080|    0.012044|
|         291|   -5.204855|   -7.372314|    0.824081|    0.012044|
|         292|   -5.202360|   -7.378574|    0.824081|    0.012044|
|         293|   -5.200022|   -7.384892|    0.824081|    0.012043|
|         294|   -5.197860|   -7.391238|    0.824082|    0.012043|
|         295|   -5.195886|   -7.397570|    0.824082|    0.012043|
|         296|   -5.194113|   -7.403844|    0.824082|    0.012043|
|         297|   -5.192551|   -7.410017|    0.824082|    0.012043|
|         298|   -5.191206|   -7.416049|    0.824082|    0.012042|
|         299|   -5.190083|   -7.421900|    0.824082|    0.012042|
|         300|   -5.189186|   -7.427540|    0.824082|    0.012042|
|         301|   -5.188518|   -7.432941|    0.824082|    0.012036|
+-----------------------------------------------------------------------+
|Fixed CL Mode                           |Value                         |
+-----------------------------------------------------------------------+
|Current CL                              |0.824082                      |
|Target CL                               |0.824                         |
|Previous AOA                            |2.79187                       |
|Changed AoA by                          |-0.000411086                  |
+-----------------------------------------------------------------------+
+----------------------------------------------------------------+
|  Inner_Iter|    rms[Rho]|     rms[nu]|          CL|          CD|
+----------------------------------------------------------------+
|         302|   -3.579309|   -7.376981|    0.824082|    0.012035|
|         303|   -3.963879|   -7.410602|    0.824082|    0.012035|
|         304|   -4.209139|   -7.424154|    0.824082|    0.012035|
|         305|   -4.288878|   -7.433264|    0.824081|    0.012034|
|         306|   -4.342437|   -7.440557|    0.824081|    0.012034|
|         307|   -4.411226|   -7.446676|    0.824081|    0.012033|
|         308|   -4.495429|   -7.451856|    0.824080|    0.012033|
|         309|   -4.581683|   -7.456250|    0.824080|    0.012033|
|         310|   -4.653387|   -7.459970|    0.824080|    0.012032|
|         311|   -4.703219|   -7.463074|    0.824080|    0.012032|
|         312|   -4.734235|   -7.465626|    0.824079|    0.012031|
|         313|   -4.751311|   -7.467742|    0.824079|    0.012031|
|         314|   -4.758650|   -7.469569|    0.824079|    0.012030|
|         315|   -4.761567|   -7.471219|    0.824079|    0.012030|
|         316|   -4.765671|   -7.472735|    0.824079|    0.012029|
|         317|   -4.774598|   -7.474119|    0.824079|    0.012029|
|         318|   -4.789035|   -7.475365|    0.824079|    0.012028|
|         319|   -4.807233|   -7.476492|    0.824079|    0.012028|
|         320|   -4.826361|   -7.477532|    0.824079|    0.012027|
|         321|   -4.844122|   -7.478517|    0.824080|    0.012027|
|         322|   -4.859817|   -7.479466|    0.824080|    0.012027|
|         323|   -4.874202|   -7.480387|    0.824081|    0.012026|
|         324|   -4.888476|   -7.481287|    0.824081|    0.012026|
|         325|   -4.903374|   -7.482182|    0.824082|    0.012025|
|         326|   -4.918875|   -7.483096|    0.824083|    0.012025|
|         327|   -4.934407|   -7.484068|    0.824084|    0.012025|
|         328|   -4.949206|   -7.485144|    0.824085|    0.012024|
|         329|   -4.962577|   -7.486368|    0.824086|    0.012024|
|         330|   -4.974040|   -7.487787|    0.824087|    0.012024|
|         331|   -4.983402|   -7.489438|    0.824088|    0.012023|
|         332|   -4.990827|   -7.491347|    0.824090|    0.012023|
|         333|   -4.996828|   -7.493533|    0.824091|    0.012023|
|         334|   -5.002162|   -7.496001|    0.824092|    0.012023|
|         335|   -5.007639|   -7.498743|    0.824094|    0.012022|
|         336|   -5.013932|   -7.501740|    0.824095|    0.012022|
|         337|   -5.021446|   -7.504964|    0.824097|    0.012022|
|         338|   -5.030266|   -7.508377|    0.824098|    0.012022|
|         339|   -5.040161|   -7.511935|    0.824099|    0.012022|
|         340|   -5.050631|   -7.515590|    0.824101|    0.012022|
|         341|   -5.060992|   -7.519291|    0.824102|    0.012022|
|         342|   -5.070525|   -7.522988|    0.824103|    0.012022|
|         343|   -5.078646|   -7.526632|    0.824105|    0.012022|
|         344|   -5.085070|   -7.530180|    0.824106|    0.012022|
|         345|   -5.089888|   -7.533600|    0.824107|    0.012022|
|         346|   -5.093510|   -7.536862|    0.824108|    0.012022|
|         347|   -5.096526|   -7.539940|    0.824109|    0.012023|
|         348|   -5.099525|   -7.542819|    0.824109|    0.012023|
|         349|   -5.102952|   -7.545489|    0.824110|    0.012023|
|         350|   -5.107038|   -7.547953|    0.824110|    0.012023|
|         351|   -5.111794|   -7.550222|    0.824110|    0.012023|
|         352|   -5.117050|   -7.552312|    0.824110|    0.012024|
|         353|   -5.122530|   -7.554250|    0.824110|    0.012024|
|         354|   -5.127930|   -7.556064|    0.824110|    0.012024|
|         355|   -5.132992|   -7.557793|    0.824110|    0.012024|
|         356|   -5.137557|   -7.559478|    0.824109|    0.012025|
|         357|   -5.141578|   -7.561163|    0.824108|    0.012025|
|         358|   -5.145118|   -7.562896|    0.824107|    0.012025|
|         359|   -5.148309|   -7.564724|    0.824106|    0.012025|
|         360|   -5.151314|   -7.566692|    0.824105|    0.012025|
|         361|   -5.154293|   -7.568846|    0.824103|    0.012026|
|         362|   -5.157375|   -7.571225|    0.824101|    0.012026|
|         363|   -5.160649|   -7.573866|    0.824100|    0.012026|
|         364|   -5.164168|   -7.576801|    0.824098|    0.012026|
|         365|   -5.167957|   -7.580052|    0.824096|    0.012027|
|         366|   -5.172025|   -7.583636|    0.824093|    0.012027|
|         367|   -5.176373|   -7.587557|    0.824091|    0.012027|
|         368|   -5.181004|   -7.591809|    0.824089|    0.012027|
|         369|   -5.185924|   -7.596376|    0.824087|    0.012027|
|         370|   -5.191144|   -7.601222|    0.824084|    0.012027|
|         371|   -5.196674|   -7.606309|    0.824082|    0.012028|
|         372|   -5.202525|   -7.611591|    0.824080|    0.012028|
|         373|   -5.208701|   -7.617008|    0.824077|    0.012028|
|         374|   -5.215200|   -7.622494|    0.824075|    0.012028|
|         375|   -5.222014|   -7.627974|    0.824073|    0.012028|
|         376|   -5.229125|   -7.633359|    0.824071|    0.012028|
|         377|   -5.236512|   -7.638568|    0.824069|    0.012028|
|         378|   -5.244145|   -7.643519|    0.824068|    0.012028|
|         379|   -5.251991|   -7.648135|    0.824066|    0.012028|
|         380|   -5.260012|   -7.652343|    0.824065|    0.012028|
|         381|   -5.268164|   -7.656083|    0.824063|    0.012028|
|         382|   -5.276401|   -7.659302|    0.824062|    0.012028|
|         383|   -5.284672|   -7.661971|    0.824061|    0.012028|
|         384|   -5.292922|   -7.664082|    0.824061|    0.012028|
|         385|   -5.301095|   -7.665649|    0.824060|    0.012028|
|         386|   -5.309129|   -7.666699|    0.824060|    0.012028|
|         387|   -5.316963|   -7.667279|    0.824060|    0.012028|
|         388|   -5.324535|   -7.667452|    0.824060|    0.012028|
|         389|   -5.331784|   -7.667296|    0.824060|    0.012028|
|         390|   -5.338652|   -7.666907|    0.824060|    0.012028|
|         391|   -5.345087|   -7.666370|    0.824060|    0.012028|
|         392|   -5.351040|   -7.665772|    0.824061|    0.012028|
|         393|   -5.356470|   -7.665202|    0.824062|    0.012028|
|         394|   -5.361347|   -7.664741|    0.824063|    0.012028|
|         395|   -5.365647|   -7.664466|    0.824064|    0.012028|
|         396|   -5.369357|   -7.664445|    0.824065|    0.012027|
|         397|   -5.372475|   -7.664733|    0.824066|    0.012027|
|         398|   -5.375008|   -7.665377|    0.824067|    0.012027|
|         399|   -5.376973|   -7.666410|    0.824068|    0.012027|
|         400|   -5.378396|   -7.667854|    0.824070|    0.012027|
|         401|   -5.379310|   -7.669724|    0.824071|    0.012022|
+-----------------------------------------------------------------------+
|Fixed CL Mode                           |Value                         |
+-----------------------------------------------------------------------+
|Current CL                              |0.824071                      |
|Target CL                               |0.824                         |
|Previous AOA                            |2.79146                       |
|Changed AoA by                          |-0.000348503                  |
+-----------------------------------------------------------------------+
+----------------------------------------------------------------+
|  Inner_Iter|    rms[Rho]|     rms[nu]|          CL|          CD|
+----------------------------------------------------------------+
|         402|   -3.651092|   -7.557869|    0.824073|    0.012021|
|         403|   -4.034838|   -7.611011|    0.824074|    0.012021|
|         404|   -4.277097|   -7.631138|    0.824076|    0.012021|
|         405|   -4.355175|   -7.644206|    0.824077|    0.012021|
|         406|   -4.408563|   -7.654842|    0.824079|    0.012020|
|         407|   -4.477704|   -7.664162|    0.824080|    0.012020|
|         408|   -4.562862|   -7.672548|    0.824082|    0.012020|
|         409|   -4.651331|   -7.680245|    0.824084|    0.012020|
|         410|   -4.727010|   -7.687404|    0.824085|    0.012020|
|         411|   -4.782051|   -7.694051|    0.824087|    0.012019|
|         412|   -4.818300|   -7.700218|    0.824088|    0.012019|
|         413|   -4.839558|   -7.706053|    0.824090|    0.012019|
|         414|   -4.849464|   -7.711773|    0.824091|    0.012019|
|         415|   -4.853504|   -7.717548|    0.824093|    0.012018|
|         416|   -4.857943|   -7.723419|    0.824094|    0.012018|
|         417|   -4.867032|   -7.729343|    0.824095|    0.012018|
|         418|   -4.881800|   -7.735279|    0.824097|    0.012018|
|         419|   -4.900599|   -7.741225|    0.824098|    0.012018|
|         420|   -4.920558|   -7.747225|    0.824099|    0.012018|
|         421|   -4.939323|   -7.753314|    0.824100|    0.012017|
|         422|   -4.956194|   -7.759477|    0.824101|    0.012017|
|         423|   -4.971983|   -7.765647|    0.824102|    0.012017|
|         424|   -4.987929|   -7.771726|    0.824103|    0.012017|
|         425|   -5.004718|   -7.777614|    0.824104|    0.012017|
|         426|   -5.022172|   -7.783219|    0.824104|    0.012017|
|         427|   -5.039496|   -7.788471|    0.824105|    0.012017|
|         428|   -5.055698|   -7.793349|    0.824106|    0.012017|
|         429|   -5.069929|   -7.797842|    0.824106|    0.012017|
|         430|   -5.081669|   -7.801965|    0.824107|    0.012017|
|         431|   -5.090820|   -7.805745|    0.824107|    0.012017|
|         432|   -5.097738|   -7.809220|    0.824107|    0.012017|
|         433|   -5.103183|   -7.812427|    0.824107|    0.012017|
|         434|   -5.108149|   -7.815407|    0.824107|    0.012017|
|         435|   -5.113629|   -7.818177|    0.824107|    0.012017|
|         436|   -5.120403|   -7.820752|    0.824107|    0.012017|
|         437|   -5.128918|   -7.823142|    0.824107|    0.012017|
|         438|   -5.139244|   -7.825348|    0.824107|    0.012017|
|         439|   -5.151089|   -7.827371|    0.824107|    0.012017|
|         440|   -5.163845|   -7.829212|    0.824106|    0.012017|
|         441|   -5.176688|   -7.830880|    0.824106|    0.012017|
|         442|   -5.188734|   -7.832384|    0.824105|    0.012017|
|         443|   -5.199253|   -7.833747|    0.824105|    0.012017|
|         444|   -5.207875|   -7.834992|    0.824104|    0.012017|
|         445|   -5.214701|   -7.836150|    0.824104|    0.012017|
|         446|   -5.220253|   -7.837253|    0.824103|    0.012018|
|         447|   -5.225287|   -7.838326|    0.824102|    0.012018|
|         448|   -5.230574|   -7.839385|    0.824101|    0.012018|
|         449|   -5.236713|   -7.840433|    0.824100|    0.012018|
|         450|   -5.244037|   -7.841466|    0.824099|    0.012018|
|         451|   -5.252594|   -7.842472|    0.824098|    0.012019|
|         452|   -5.262192|   -7.843425|    0.824097|    0.012019|
|         453|   -5.272470|   -7.844305|    0.824096|    0.012019|
|         454|   -5.282997|   -7.845076|    0.824095|    0.012019|
|         455|   -5.293371|   -7.845695|    0.824093|    0.012019|
|         456|   -5.303291|   -7.846134|    0.824092|    0.012020|
|         457|   -5.312604|   -7.846347|    0.824090|    0.012020|
|         458|   -5.321313|   -7.846312|    0.824089|    0.012020|
|         459|   -5.329533|   -7.846020|    0.824087|    0.012020|
|         460|   -5.337445|   -7.845473|    0.824085|    0.012021|
|         461|   -5.345235|   -7.844687|    0.824083|    0.012021|
|         462|   -5.353054|   -7.843695|    0.824082|    0.012021|
|         463|   -5.360996|   -7.842540|    0.824079|    0.012021|
|         464|   -5.369095|   -7.841282|    0.824077|    0.012021|
|         465|   -5.377339|   -7.839992|    0.824075|    0.012022|
|         466|   -5.385684|   -7.838748|    0.824073|    0.012022|
|         467|   -5.394079|   -7.837637|    0.824071|    0.012022|
|         468|   -5.402472|   -7.836745|    0.824068|    0.012022|
|         469|   -5.410825|   -7.836161|    0.824066|    0.012023|
|         470|   -5.419114|   -7.835964|    0.824064|    0.012023|
|         471|   -5.427321|   -7.836230|    0.824061|    0.012023|
|         472|   -5.435437|   -7.837018|    0.824059|    0.012023|
|         473|   -5.443450|   -7.838377|    0.824057|    0.012023|
|         474|   -5.451343|   -7.840338|    0.824055|    0.012023|
|         475|   -5.459099|   -7.842908|    0.824053|    0.012023|
|         476|   -5.466691|   -7.846073|    0.824050|    0.012024|
|         477|   -5.474097|   -7.849794|    0.824048|    0.012024|
|         478|   -5.481293|   -7.854005|    0.824047|    0.012024|
|         479|   -5.488262|   -7.858612|    0.824045|    0.012024|
|         480|   -5.494992|   -7.863497|    0.824043|    0.012024|
|         481|   -5.501483|   -7.868515|    0.824042|    0.012024|
|         482|   -5.507739|   -7.873498|    0.824041|    0.012024|
|         483|   -5.513774|   -7.878267|    0.824039|    0.012024|
|         484|   -5.519610|   -7.882636|    0.824038|    0.012024|
|         485|   -5.525272|   -7.886422|    0.824038|    0.012024|
|         486|   -5.530792|   -7.889464|    0.824037|    0.012024|
|         487|   -5.536206|   -7.891633|    0.824037|    0.012024|
|         488|   -5.541549|   -7.892842|    0.824036|    0.012024|
|         489|   -5.546861|   -7.893060|    0.824036|    0.012024|
|         490|   -5.552179|   -7.892311|    0.824036|    0.012024|
|         491|   -5.557540|   -7.890677|    0.824036|    0.012024|
|         492|   -5.562979|   -7.888285|    0.824037|    0.012024|
|         493|   -5.568526|   -7.885301|    0.824037|    0.012024|
|         494|   -5.574208|   -7.881915|    0.824038|    0.012023|
|         495|   -5.580045|   -7.878324|    0.824038|    0.012023|
|         496|   -5.586054|   -7.874728|    0.824039|    0.012023|
|         497|   -5.592242|   -7.871310|    0.824040|    0.012023|
|         498|   -5.598612|   -7.868235|    0.824041|    0.012023|
|         499|   -5.605158|   -7.865644|    0.824043|    0.012022|
|         500|   -5.611869|   -7.863648|    0.824044|    0.012022|
|         501|   -5.618728|   -7.862329|    0.824045|    0.012019|
+-----------------------------------------------------------------------+
|Fixed CL Mode                           |Value                         |
+-----------------------------------------------------------------------+
|Current CL                              |0.824045                      |
|Target CL                               |0.824                         |
|Previous AOA                            |2.79111                       |
|Changed AoA by                          |-0.00021917                   |
+-----------------------------------------------------------------------+
+----------------------------------------------------------------+
|  Inner_Iter|    rms[Rho]|     rms[nu]|          CL|          CD|
+----------------------------------------------------------------+
|         502|   -3.852525|   -7.751667|    0.824047|    0.012018|
|         503|   -4.235785|   -7.800667|    0.824048|    0.012018|
|         504|   -4.476355|   -7.817801|    0.824050|    0.012018|
|         505|   -4.553460|   -7.828537|    0.824051|    0.012018|
|         506|   -4.606633|   -7.837370|    0.824053|    0.012017|
|         507|   -4.675808|   -7.845320|    0.824054|    0.012017|
|         508|   -4.761327|   -7.852646|    0.824056|    0.012017|
|         509|   -4.850948|   -7.859447|    0.824058|    0.012017|
|         510|   -4.929025|   -7.865721|    0.824059|    0.012016|
|         511|   -4.987528|   -7.871355|    0.824061|    0.012016|
|         512|   -5.027545|   -7.876241|    0.824062|    0.012016|
|         513|   -5.052058|   -7.880389|    0.824064|    0.012015|
|         514|   -5.064190|   -7.883887|    0.824065|    0.012015|
|         515|   -5.069481|   -7.886794|    0.824067|    0.012015|
|         516|   -5.074667|   -7.889080|    0.824068|    0.012014|
|         517|   -5.084484|   -7.890678|    0.824069|    0.012014|
|         518|   -5.100241|   -7.891572|    0.824071|    0.012014|
|         519|   -5.120351|   -7.891813|    0.824072|    0.012014|
|         520|   -5.141854|   -7.891511|    0.824073|    0.012013|
|         521|   -5.162251|   -7.890786|    0.824074|    0.012013|
|         522|   -5.180761|   -7.889729|    0.824075|    0.012013|
|         523|   -5.198224|   -7.888400|    0.824075|    0.012013|
|         524|   -5.215957|   -7.886851|    0.824076|    0.012012|
|         525|   -5.234675|   -7.885135|    0.824077|    0.012012|
|         526|   -5.254138|   -7.883307|    0.824077|    0.012012|
|         527|   -5.273397|   -7.881448|    0.824078|    0.012012|
|         528|   -5.291273|   -7.879635|    0.824078|    0.012012|
|         529|   -5.306754|   -7.877944|    0.824078|    0.012012|
|         530|   -5.319221|   -7.876440|    0.824078|    0.012011|
|         531|   -5.328572|   -7.875177|    0.824078|    0.012011|
|         532|   -5.335256|   -7.874193|    0.824078|    0.012011|
|         533|   -5.340190|   -7.873509|    0.824078|    0.012011|
|         534|   -5.344545|   -7.873123|    0.824078|    0.012011|
|         535|   -5.349462|   -7.873015|    0.824078|    0.012011|
|         536|   -5.355816|   -7.873147|    0.824077|    0.012011|
|         537|   -5.364082|   -7.873474|    0.824077|    0.012011|
|         538|   -5.374301|   -7.873941|    0.824076|    0.012011|
|         539|   -5.386102|   -7.874493|    0.824076|    0.012011|
|         540|   -5.398758|   -7.875073|    0.824075|    0.012011|
|         541|   -5.411298|   -7.875632|    0.824075|    0.012011|
|         542|   -5.422700|   -7.876132|    0.824074|    0.012011|
|         543|   -5.432146|   -7.876542|    0.824073|    0.012011|
|         544|   -5.439266|   -7.876846|    0.824073|    0.012011|
|         545|   -5.444251|   -7.877040|    0.824072|    0.012011|
|         546|   -5.447773|   -7.877123|    0.824071|    0.012011|
|         547|   -5.450747|   -7.877106|    0.824070|    0.012011|
|         548|   -5.454064|   -7.876998|    0.824069|    0.012011|
|         549|   -5.458393|   -7.876814|    0.824068|    0.012012|
|         550|   -5.464094|   -7.876565|    0.824067|    0.012012|
|         551|   -5.471207|   -7.876260|    0.824066|    0.012012|
|         552|   -5.479517|   -7.875903|    0.824065|    0.012012|
|         553|   -5.488641|   -7.875502|    0.824064|    0.012012|
|         554|   -5.498134|   -7.875047|    0.824063|    0.012013|
|         555|   -5.507587|   -7.874528|    0.824062|    0.012013|
|         556|   -5.516713|   -7.873924|    0.824061|    0.012013|
|         557|   -5.525383|   -7.873215|    0.824059|    0.012014|
|         558|   -5.533627|   -7.872382|    0.824058|    0.012014|
|         559|   -5.541596|   -7.871408|    0.824056|    0.012014|
|         560|   -5.549501|   -7.870277|    0.824055|    0.012014|
|         561|   -5.557557|   -7.868982|    0.824054|    0.012015|
|         562|   -5.565940|   -7.867521|    0.824052|    0.012015|
|         563|   -5.574767|   -7.865907|    0.824050|    0.012015|
|         564|   -5.584093|   -7.864161|    0.824049|    0.012016|
|         565|   -5.593922|   -7.862317|    0.824047|    0.012016|
|         566|   -5.604227|   -7.860420|    0.824045|    0.012016|
|         567|   -5.614967|   -7.858523|    0.824044|    0.012017|
|         568|   -5.626100|   -7.856684|    0.824042|    0.012017|
|         569|   -5.637594|   -7.854969|    0.824040|    0.012018|
|         570|   -5.649421|   -7.853442|    0.824038|    0.012018|
|         571|   -5.661562|   -7.852166|    0.824037|    0.012018|
|         572|   -5.673993|   -7.851195|    0.824035|    0.012019|
|         573|   -5.686679|   -7.850581|    0.824033|    0.012019|
|         574|   -5.699573|   -7.850360|    0.824031|    0.012019|
|         575|   -5.712606|   -7.850557|    0.824030|    0.012020|
|         576|   -5.725692|   -7.851183|    0.824028|    0.012020|
|         577|   -5.738726|   -7.852233|    0.824026|    0.012020|
|         578|   -5.751588|   -7.853685|    0.824025|    0.012021|
|         579|   -5.764151|   -7.855501|    0.824023|    0.012021|
|         580|   -5.776281|   -7.857627|    0.824022|    0.012021|
|         581|   -5.787847|   -7.859994|    0.824021|    0.012022|
|         582|   -5.798729|   -7.862521|    0.824019|    0.012022|
|         583|   -5.808817|   -7.865116|    0.824018|    0.012022|
|         584|   -5.818023|   -7.867683|    0.824017|    0.012022|
|         585|   -5.826285|   -7.870120|    0.824016|    0.012023|
|         586|   -5.833567|   -7.872331|    0.824016|    0.012023|
|         587|   -5.839867|   -7.874228|    0.824015|    0.012023|
|         588|   -5.845212|   -7.875736|    0.824015|    0.012023|
|         589|   -5.849660|   -7.876799|    0.824014|    0.012023|
|         590|   -5.853292|   -7.877382|    0.824014|    0.012024|
|         591|   -5.856208|   -7.877476|    0.824014|    0.012024|
|         592|   -5.858521|   -7.877096|    0.824014|    0.012024|
|         593|   -5.860351|   -7.876278|    0.824014|    0.012024|
|         594|   -5.861817|   -7.875081|    0.824014|    0.012024|
|         595|   -5.863034|   -7.873578|    0.824014|    0.012024|
|         596|   -5.864109|   -7.871850|    0.824014|    0.012024|
|         597|   -5.865137|   -7.869984|    0.824015|    0.012024|
|         598|   -5.866201|   -7.868066|    0.824015|    0.012024|
|         599|   -5.867371|   -7.866176|    0.824016|    0.012024|
|         600|   -5.868704|   -7.864382|    0.824016|    0.012024|
|         601|   -5.870245|   -7.862743|    0.824017|    0.012023|
+-----------------------------------------------------------------------+
|Fixed CL Mode                           |Value                         |
+-----------------------------------------------------------------------+
|Current CL                              |0.824017                      |
|Target CL                               |0.824                         |
|Previous AOA                            |2.79089                       |
|Changed AoA by                          |-8.202e-05                    |
+-----------------------------------------------------------------------+
+----------------------------------------------------------------+
|  Inner_Iter|    rms[Rho]|     rms[nu]|          CL|          CD|
+----------------------------------------------------------------+
|         602|   -4.279352|   -7.841735|    0.824018|    0.012023|
|         603|   -4.661462|   -7.850073|    0.824019|    0.012023|
|         604|   -4.897774|   -7.851963|    0.824020|    0.012023|
|         605|   -4.971834|   -7.852800|    0.824021|    0.012023|
|         606|   -5.023417|   -7.853391|    0.824021|    0.012023|
|         607|   -5.090981|   -7.853889|    0.824022|    0.012023|
|         608|   -5.174434|   -7.854315|    0.824023|    0.012022|
|         609|   -5.261940|   -7.854659|    0.824024|    0.012022|
|         610|   -5.338982|   -7.854895|    0.824025|    0.012022|
|         611|   -5.398291|   -7.854977|    0.824026|    0.012022|
|         612|   -5.440590|   -7.854865|    0.824027|    0.012022|
|         613|   -5.467958|   -7.854535|    0.824028|    0.012022|
|         614|   -5.482625|   -7.853979|    0.824029|    0.012022|
|         615|   -5.489548|   -7.853190|    0.824030|    0.012021|
|         616|   -5.495344|   -7.852160|    0.824031|    0.012021|
|         617|   -5.504923|   -7.850887|    0.824032|    0.012021|
|         618|   -5.519852|   -7.849384|    0.824033|    0.012021|
|         619|   -5.538828|   -7.847683|    0.824034|    0.012020|
|         620|   -5.559206|   -7.845830|    0.824034|    0.012020|
|         621|   -5.578769|   -7.843877|    0.824035|    0.012020|
|         622|   -5.596874|   -7.841876|    0.824036|    0.012020|
|         623|   -5.614292|   -7.839880|    0.824036|    0.012020|
|         624|   -5.632132|   -7.837941|    0.824037|    0.012019|
|         625|   -5.650861|   -7.836107|    0.824037|    0.012019|
|         626|   -5.670005|   -7.834428|    0.824038|    0.012019|
|         627|   -5.688446|   -7.832947|    0.824038|    0.012019|
|         628|   -5.704931|   -7.831709|    0.824039|    0.012018|
|         629|   -5.718513|   -7.830748|    0.824039|    0.012018|
|         630|   -5.728780|   -7.830093|    0.824039|    0.012018|
|         631|   -5.735911|   -7.829763|    0.824039|    0.012018|
|         632|   -5.740608|   -7.829769|    0.824039|    0.012017|
|         633|   -5.743931|   -7.830112|    0.824040|    0.012017|
|         634|   -5.747051|   -7.830783|    0.824040|    0.012017|
|         635|   -5.750999|   -7.831768|    0.824040|    0.012017|
|         636|   -5.756485|   -7.833043|    0.824040|    0.012017|
|         637|   -5.763808|   -7.834578|    0.824040|    0.012016|
|         638|   -5.772858|   -7.836341|    0.824040|    0.012016|
|         639|   -5.783156|   -7.838295|    0.824039|    0.012016|
|         640|   -5.793935|   -7.840404|    0.824039|    0.012016|
|         641|   -5.804260|   -7.842630|    0.824039|    0.012016|
|         642|   -5.813227|   -7.844940|    0.824039|    0.012015|
|         643|   -5.820177|   -7.847302|    0.824039|    0.012015|
|         644|   -5.824894|   -7.849691|    0.824039|    0.012015|
|         645|   -5.827653|   -7.852085|    0.824039|    0.012015|
|         646|   -5.829107|   -7.854468|    0.824039|    0.012015|
|         647|   -5.830076|   -7.856828|    0.824038|    0.012015|
|         648|   -5.831317|   -7.859159|    0.824038|    0.012015|
|         649|   -5.833372|   -7.861459|    0.824038|    0.012015|
|         650|   -5.836506|   -7.863730|    0.824038|    0.012015|
|         651|   -5.840718|   -7.865977|    0.824038|    0.012015|
|         652|   -5.845804|   -7.868203|    0.824038|    0.012014|
|         653|   -5.851438|   -7.870419|    0.824038|    0.012014|
|         654|   -5.857269|   -7.872627|    0.824037|    0.012014|
|         655|   -5.862993|   -7.874833|    0.824037|    0.012014|
|         656|   -5.868415|   -7.877040|    0.824037|    0.012015|
|         657|   -5.873465|   -7.879246|    0.824037|    0.012015|
|         658|   -5.878190|   -7.881450|    0.824037|    0.012015|
|         659|   -5.882714|   -7.883650|    0.824037|    0.012015|
|         660|   -5.887195|   -7.885841|    0.824036|    0.012015|
|         661|   -5.891782|   -7.888017|    0.824036|    0.012015|
|         662|   -5.896592|   -7.890173|    0.824036|    0.012015|
|         663|   -5.901697|   -7.892306|    0.824036|    0.012015|
|         664|   -5.907123|   -7.894414|    0.824036|    0.012015|
|         665|   -5.912867|   -7.896498|    0.824035|    0.012015|
|         666|   -5.918905|   -7.898564|    0.824035|    0.012016|
|         667|   -5.925211|   -7.900620|    0.824035|    0.012016|
|         668|   -5.931757|   -7.902679|    0.824034|    0.012016|
|         669|   -5.938527|   -7.904759|    0.824034|    0.012016|
|         670|   -5.945507|   -7.906880|    0.824034|    0.012016|
|         671|   -5.952688|   -7.909065|    0.824033|    0.012016|
|         672|   -5.960062|   -7.911337|    0.824033|    0.012017|
|         673|   -5.967611|   -7.913722|    0.824033|    0.012017|
|         674|   -5.975314|   -7.916241|    0.824032|    0.012017|
|         675|   -5.983134|   -7.918915|    0.824032|    0.012017|
|         676|   -5.991031|   -7.921760|    0.824032|    0.012018|
|         677|   -5.998951|   -7.924787|    0.824031|    0.012018|
|         678|   -6.006837|   -7.928002|    0.824031|    0.012018|
|         679|   -6.014627|   -7.931400|    0.824031|    0.012018|
|         680|   -6.022258|   -7.934972|    0.824030|    0.012019|
|         681|   -6.029666|   -7.938701|    0.824030|    0.012019|
|         682|   -6.036791|   -7.942559|    0.824030|    0.012019|
|         683|   -6.043578|   -7.946514|    0.824029|    0.012019|
|         684|   -6.049976|   -7.950525|    0.824029|    0.012020|
|         685|   -6.055946|   -7.954549|    0.824029|    0.012020|
|         686|   -6.061457|   -7.958537|    0.824029|    0.012020|
|         687|   -6.066490|   -7.962439|    0.824029|    0.012020|
|         688|   -6.071037|   -7.966207|    0.824028|    0.012021|
|         689|   -6.075105|   -7.969794|    0.824028|    0.012021|
|         690|   -6.078711|   -7.973161|    0.824028|    0.012021|
|         691|   -6.081884|   -7.976275|    0.824028|    0.012021|
|         692|   -6.084662|   -7.979113|    0.824028|    0.012021|
|         693|   -6.087090|   -7.981664|    0.824028|    0.012022|
|         694|   -6.089220|   -7.983927|    0.824028|    0.012022|
|         695|   -6.091107|   -7.985912|    0.824028|    0.012022|
|         696|   -6.092806|   -7.987642|    0.824028|    0.012022|
|         697|   -6.094373|   -7.989147|    0.824028|    0.012022|
|         698|   -6.095862|   -7.990464|    0.824029|    0.012023|
|         699|   -6.097322|   -7.991635|    0.824029|    0.012023|
|         700|   -6.098798|   -7.992704|    0.824029|    0.012023|
|         701|   -6.100332|   -7.993717|    0.824029|    0.012021|
+-----------------------------------------------------------------------+
|Fixed CL Mode                           |Value                         |
+-----------------------------------------------------------------------+
|Current CL                              |0.824029                      |
|Target CL                               |0.824                         |
|Previous AOA                            |2.79081                       |
|Changed AoA by                          |-0.000144341                  |
+-----------------------------------------------------------------------+
+----------------------------------------------------------------+
|  Inner_Iter|    rms[Rho]|     rms[nu]|          CL|          CD|
+----------------------------------------------------------------+
|         702|   -4.034033|   -7.903023|    0.824029|    0.012021|
|         703|   -4.418404|   -7.945571|    0.824030|    0.012021|
|         704|   -4.661671|   -7.960064|    0.824030|    0.012021|
|         705|   -4.739759|   -7.968692|    0.824030|    0.012021|
|         706|   -4.793080|   -7.975327|    0.824030|    0.012021|
|         707|   -4.862621|   -7.980880|    0.824031|    0.012022|
|         708|   -4.948931|   -7.985634|    0.824031|    0.012022|
|         709|   -5.039581|   -7.989753|    0.824031|    0.012022|
|         710|   -5.118383|   -7.993333|    0.824031|    0.012022|
|         711|   -5.176851|   -7.996403|    0.824032|    0.012022|
|         712|   -5.216121|   -7.999002|    0.824032|    0.012022|
|         713|   -5.239517|   -8.001257|    0.824032|    0.012022|
|         714|   -5.250548|   -8.003343|    0.824032|    0.012022|
|         715|   -5.255055|   -8.005388|    0.824033|    0.012022|
|         716|   -5.259898|   -8.007432|    0.824033|    0.012022|
|         717|   -5.269786|   -8.009460|    0.824033|    0.012022|
|         718|   -5.285927|   -8.011460|    0.824033|    0.012022|
|         719|   -5.306593|   -8.013449|    0.824033|    0.012022|
|         720|   -5.328640|   -8.015466|    0.824034|    0.012022|
|         721|   -5.349386|   -8.017539|    0.824034|    0.012022|
|         722|   -5.367945|   -8.019671|    0.824034|    0.012022|
|         723|   -5.385170|   -8.021837|    0.824034|    0.012022|
|         724|   -5.402470|   -8.024000|    0.824034|    0.012022|
|         725|   -5.420684|   -8.026125|    0.824034|    0.012022|
|         726|   -5.439682|   -8.028197|    0.824034|    0.012021|
|         727|   -5.458621|   -8.030199|    0.824034|    0.012021|
|         728|   -5.476397|   -8.032153|    0.824034|    0.012021|
|         729|   -5.492027|   -8.034075|    0.824034|    0.012021|
|         730|   -5.504873|   -8.035987|    0.824034|    0.012021|
|         731|   -5.514767|   -8.037913|    0.824034|    0.012021|
|         732|   -5.522072|   -8.039873|    0.824034|    0.012021|
|         733|   -5.527645|   -8.041887|    0.824034|    0.012021|
|         734|   -5.532641|   -8.043959|    0.824033|    0.012021|
|         735|   -5.538229|   -8.046088|    0.824033|    0.012021|
|         736|   -5.545344|   -8.048268|    0.824033|    0.012020|
|         737|   -5.554538|   -8.050482|    0.824033|    0.012020|
|         738|   -5.565933|   -8.052711|    0.824033|    0.012020|
|         739|   -5.579222|   -8.054936|    0.824032|    0.012020|
|         740|   -5.593714|   -8.057135|    0.824032|    0.012020|
|         741|   -5.608426|   -8.059290|    0.824032|    0.012020|
|         742|   -5.622258|   -8.061385|    0.824032|    0.012020|
|         743|   -5.634262|   -8.063408|    0.824031|    0.012019|
|         744|   -5.643921|   -8.065356|    0.824031|    0.012019|
|         745|   -5.651317|   -8.067226|    0.824031|    0.012019|
|         746|   -5.657088|   -8.069021|    0.824030|    0.012019|
|         747|   -5.662191|   -8.070742|    0.824030|    0.012019|
|         748|   -5.667609|   -8.072393|    0.824030|    0.012019|
|         749|   -5.674117|   -8.073978|    0.824029|    0.012018|
|         750|   -5.682156|   -8.075497|    0.824029|    0.012018|
|         751|   -5.691815|   -8.076953|    0.824028|    0.012018|
|         752|   -5.702878|   -8.078344|    0.824028|    0.012018|
|         753|   -5.714910|   -8.079677|    0.824027|    0.012018|
|         754|   -5.727377|   -8.080949|    0.824027|    0.012018|
|         755|   -5.739756|   -8.082156|    0.824026|    0.012018|
|         756|   -5.751646|   -8.083300|    0.824025|    0.012018|
|         757|   -5.762832|   -8.084385|    0.824025|    0.012017|
|         758|   -5.773297|   -8.085421|    0.824024|    0.012017|
|         759|   -5.783190|   -8.086425|    0.824023|    0.012017|
|         760|   -5.792748|   -8.087416|    0.824023|    0.012017|
|         761|   -5.802231|   -8.088421|    0.824022|    0.012017|
|         762|   -5.811853|   -8.089470|    0.824021|    0.012017|
|         763|   -5.821758|   -8.090601|    0.824020|    0.012017|
|         764|   -5.832011|   -8.091854|    0.824019|    0.012017|
|         765|   -5.842608|   -8.093271|    0.824019|    0.012017|
|         766|   -5.853505|   -8.094898|    0.824018|    0.012017|
|         767|   -5.864640|   -8.096782|    0.824017|    0.012017|
|         768|   -5.875950|   -8.098965|    0.824016|    0.012016|
|         769|   -5.887386|   -8.101489|    0.824015|    0.012016|
|         770|   -5.898913|   -8.104386|    0.824014|    0.012016|
|         771|   -5.910508|   -8.107681|    0.824013|    0.012016|
|         772|   -5.922147|   -8.111388|    0.824012|    0.012016|
|         773|   -5.933802|   -8.115507|    0.824012|    0.012016|
|         774|   -5.945430|   -8.120025|    0.824011|    0.012016|
|         775|   -5.956973|   -8.124914|    0.824010|    0.012016|
|         776|   -5.968356|   -8.130126|    0.824010|    0.012016|
|         777|   -5.979491|   -8.135598|    0.824009|    0.012016|
|         778|   -5.990283|   -8.141252|    0.824008|    0.012016|
|         779|   -6.000637|   -8.146993|    0.824008|    0.012016|
|         780|   -6.010462|   -8.152716|    0.824007|    0.012017|
|         781|   -6.019674|   -8.158308|    0.824007|    0.012017|
|         782|   -6.028207|   -8.163653|    0.824007|    0.012017|
|         783|   -6.036010|   -8.168640|    0.824007|    0.012017|
|         784|   -6.043049|   -8.173167|    0.824007|    0.012017|
|         785|   -6.049314|   -8.177152|    0.824007|    0.012017|
|         786|   -6.054813|   -8.180537|    0.824007|    0.012017|
|         787|   -6.059574|   -8.183292|    0.824007|    0.012017|
|         788|   -6.063643|   -8.185418|    0.824007|    0.012017|
|         789|   -6.067082|   -8.186948|    0.824007|    0.012017|
|         790|   -6.069963|   -8.187945|    0.824007|    0.012018|
|         791|   -6.072369|   -8.188496|    0.824008|    0.012018|
|         792|   -6.074383|   -8.188706|    0.824008|    0.012018|
|         793|   -6.076092|   -8.188692|    0.824009|    0.012018|
|         794|   -6.077576|   -8.188575|    0.824009|    0.012018|
|         795|   -6.078912|   -8.188474|    0.824010|    0.012018|
|         796|   -6.080167|   -8.188499|    0.824011|    0.012018|
|         797|   -6.081400|   -8.188748|    0.824011|    0.012019|
|         798|   -6.082661|   -8.189305|    0.824012|    0.012019|
|         799|   -6.083989|   -8.190233|    0.824013|    0.012019|
|         800|   -6.085415|   -8.191574|    0.824014|    0.012019|
|         801|   -6.086960|   -8.193352|    0.824014|    0.012018|
+-----------------------------------------------------------------------+
|Fixed CL Mode                           |Value                         |
+-----------------------------------------------------------------------+
|Current CL                              |0.824014                      |
|Target CL                               |0.824                         |
|Previous AOA                            |2.79066                       |
|Changed AoA by                          |-6.82792e-05                  |
+-----------------------------------------------------------------------+
+----------------------------------------------------------------+
|  Inner_Iter|    rms[Rho]|     rms[nu]|          CL|          CD|
+----------------------------------------------------------------+
|         802|   -4.359023|   -8.138672|    0.824015|    0.012018|
|         803|   -4.742230|   -8.167741|    0.824016|    0.012019|
|         804|   -4.982309|   -8.178899|    0.824017|    0.012019|
|         805|   -5.058801|   -8.186717|    0.824018|    0.012019|
|         806|   -5.111495|   -8.193530|    0.824019|    0.012019|
|         807|   -5.180164|   -8.199799|    0.824019|    0.012019|
|         808|   -5.265044|   -8.205590|    0.824020|    0.012019|
|         809|   -5.353927|   -8.210888|    0.824021|    0.012019|
|         810|   -5.431402|   -8.215643|    0.824022|    0.012020|
|         811|   -5.489669|   -8.219763|    0.824023|    0.012020|
|         812|   -5.529817|   -8.223180|    0.824023|    0.012020|
|         813|   -5.554675|   -8.225898|    0.824024|    0.012020|
|         814|   -5.567178|   -8.227975|    0.824025|    0.012020|
|         815|   -5.572708|   -8.229465|    0.824025|    0.012020|
|         816|   -5.577926|   -8.230394|    0.824026|    0.012020|
|         817|   -5.587563|   -8.230779|    0.824026|    0.012020|
|         818|   -5.602955|   -8.230662|    0.824027|    0.012020|
|         819|   -5.622561|   -8.230123|    0.824027|    0.012021|
|         820|   -5.643478|   -8.229270|    0.824028|    0.012021|
|         821|   -5.663249|   -8.228209|    0.824028|    0.012021|
|         822|   -5.681097|   -8.227036|    0.824028|    0.012021|
|         823|   -5.697802|   -8.225831|    0.824028|    0.012021|
|         824|   -5.714584|   -8.224666|    0.824029|    0.012021|
|         825|   -5.732062|   -8.223605|    0.824029|    0.012021|
|         826|   -5.749923|   -8.222717|    0.824029|    0.012021|
|         827|   -5.767202|   -8.222068|    0.824029|    0.012021|
|         828|   -5.782763|   -8.221716|    0.824029|    0.012021|
|         829|   -5.795702|   -8.221730|    0.824029|    0.012021|
|         830|   -5.805558|   -8.222154|    0.824029|    0.012021|
|         831|   -5.812384|   -8.223028|    0.824029|    0.012021|
|         832|   -5.816732|   -8.224371|    0.824029|    0.012021|
|         833|   -5.819535|   -8.226190|    0.824028|    0.012021|
|         834|   -5.821897|   -8.228478|    0.824028|    0.012021|
|         835|   -5.824831|   -8.231213|    0.824028|    0.012021|
|         836|   -5.829076|   -8.234358|    0.824027|    0.012021|
|         837|   -5.834990|   -8.237867|    0.824027|    0.012021|
|         838|   -5.842544|   -8.241686|    0.824027|    0.012021|
|         839|   -5.851362|   -8.245755|    0.824026|    0.012021|
|         840|   -5.860795|   -8.250013|    0.824026|    0.012021|
|         841|   -5.870036|   -8.254400|    0.824026|    0.012021|
|         842|   -5.878294|   -8.258861|    0.824025|    0.012021|
|         843|   -5.884986|   -8.263345|    0.824025|    0.012021|
|         844|   -5.889907|   -8.267810|    0.824024|    0.012021|
|         845|   -5.893278|   -8.272222|    0.824024|    0.012021|
|         846|   -5.895661|   -8.276557|    0.824023|    0.012020|
|         847|   -5.897775|   -8.280800|    0.824023|    0.012020|
|         848|   -5.900303|   -8.284943|    0.824022|    0.012020|
|         849|   -5.903746|   -8.288984|    0.824022|    0.012020|
|         850|   -5.908359|   -8.292929|    0.824021|    0.012020|
|         851|   -5.914156|   -8.296783|    0.824021|    0.012020|
|         852|   -5.920955|   -8.300558|    0.824020|    0.012020|
|         853|   -5.928455|   -8.304259|    0.824020|    0.012020|
|         854|   -5.936315|   -8.307890|    0.824019|    0.012020|
|         855|   -5.944232|   -8.311446|    0.824019|    0.012020|
|         856|   -5.951993|   -8.314920|    0.824018|    0.012020|
|         857|   -5.959506|   -8.318297|    0.824018|    0.012020|
|         858|   -5.966787|   -8.321557|    0.824017|    0.012020|
|         859|   -5.973933|   -8.324675|    0.824017|    0.012019|
|         860|   -5.981079|   -8.327621|    0.824016|    0.012019|
|         861|   -5.988360|   -8.330365|    0.824016|    0.012019|
|         862|   -5.995873|   -8.332874|    0.824015|    0.012019|
|         863|   -6.003675|   -8.335122|    0.824015|    0.012019|
|         864|   -6.011771|   -8.337087|    0.824014|    0.012019|
|         865|   -6.020131|   -8.338758|    0.824014|    0.012019|
|         866|   -6.028698|   -8.340137|    0.824013|    0.012019|
|         867|   -6.037404|   -8.341237|    0.824013|    0.012019|
|         868|   -6.046179|   -8.342086|    0.824012|    0.012019|
|         869|   -6.054958|   -8.342726|    0.824012|    0.012019|
|         870|   -6.063679|   -8.343207|    0.824012|    0.012019|
|         871|   -6.072283|   -8.343590|    0.824011|    0.012019|
|         872|   -6.080708|   -8.343942|    0.824011|    0.012019|
|         873|   -6.088887|   -8.344329|    0.824010|    0.012019|
|         874|   -6.096746|   -8.344816|    0.824010|    0.012019|
|         875|   -6.104205|   -8.345463|    0.824010|    0.012019|
|         876|   -6.111178|   -8.346320|    0.824009|    0.012019|
|         877|   -6.117582|   -8.347426|    0.824009|    0.012019|
|         878|   -6.123336|   -8.348806|    0.824009|    0.012019|
|         879|   -6.128374|   -8.350469|    0.824009|    0.012019|
|         880|   -6.132640|   -8.352411|    0.824009|    0.012019|
|         881|   -6.136103|   -8.354607|    0.824008|    0.012019|
|         882|   -6.138746|   -8.357022|    0.824008|    0.012019|
|         883|   -6.140577|   -8.359602|    0.824008|    0.012019|
|         884|   -6.141623|   -8.362283|    0.824008|    0.012019|
|         885|   -6.141928|   -8.364994|    0.824008|    0.012019|
|         886|   -6.141554|   -8.367655|    0.824008|    0.012019|
|         887|   -6.140572|   -8.370187|    0.824008|    0.012019|
|         888|   -6.139064|   -8.372516|    0.824008|    0.012019|
|         889|   -6.137116|   -8.374576|    0.824008|    0.012019|
|         890|   -6.134816|   -8.376314|    0.824009|    0.012019|
|         891|   -6.132251|   -8.377695|    0.824009|    0.012019|
|         892|   -6.129506|   -8.378704|    0.824009|    0.012019|
|         893|   -6.126659|   -8.379347|    0.824009|    0.012019|
|         894|   -6.123783|   -8.379650|    0.824010|    0.012019|
|         895|   -6.120944|   -8.379658|    0.824010|    0.012019|
|         896|   -6.118200|   -8.379430|    0.824010|    0.012019|
|         897|   -6.115603|   -8.379035|    0.824011|    0.012019|
|         898|   -6.113198|   -8.378546|    0.824011|    0.012019|
|         899|   -6.111024|   -8.378037|    0.824012|    0.012019|
|         900|   -6.109113|   -8.377576|    0.824012|    0.012019|
|         901|   -6.107494|   -8.377223|    0.824012|    0.012018|
+-----------------------------------------------------------------------+
|Fixed CL Mode                           |Value                         |
+-----------------------------------------------------------------------+
|Current CL                              |0.824012                      |
|Target CL                               |0.824                         |
|Previous AOA                            |2.79059                       |
[...]
|        5298|   -6.037186|   -7.947386|    0.824237|    0.012024|
|        5299|   -6.043840|   -7.951146|    0.824237|    0.012024|
|        5300|   -6.050109|   -7.954940|    0.824237|    0.012024|
|        5301|   -6.055955|   -7.958780|    0.824237|    0.012024|
|        5302|   -6.061349|   -7.962680|    0.824238|    0.012024|
|        5303|   -6.066275|   -7.966651|    0.824238|    0.012024|
|        5304|   -6.070727|   -7.970699|    0.824238|    0.012024|
|        5305|   -6.074714|   -7.974828|    0.824238|    0.012024|
|        5306|   -6.078253|   -7.979037|    0.824238|    0.012024|
|        5307|   -6.081374|   -7.983327|    0.824238|    0.012024|
|        5308|   -6.084115|   -7.987696|    0.824238|    0.012023|
|        5309|   -6.086521|   -7.992142|    0.824238|    0.012023|
|        5310|   -6.088644|   -7.996664|    0.824238|    0.012023|
|        5311|   -6.090537|   -8.001259|    0.824238|    0.012023|
|        5312|   -6.092257|   -8.005928|    0.824239|    0.012023|
|        5313|   -6.093861|   -8.010670|    0.824239|    0.012024|
|        5314|   -6.095403|   -8.015486|    0.824239|    0.012024|
|        5315|   -6.096936|   -8.020378|    0.824239|    0.012024|
|        5316|   -6.098508|   -8.025350|    0.824239|    0.012024|
|        5317|   -6.100164|   -8.030405|    0.824239|    0.012024|
|        5318|   -6.101940|   -8.035547|    0.824239|    0.012024|
|        5319|   -6.103870|   -8.040782|    0.824239|    0.012024|
|        5320|   -6.105980|   -8.046113|    0.824240|    0.012024|
|        5321|   -6.108288|   -8.051545|    0.824240|    0.012024|
|        5322|   -6.110808|   -8.057082|    0.824240|    0.012024|
|        5323|   -6.113547|   -8.062727|    0.824240|    0.012024|
|        5324|   -6.116503|   -8.068482|    0.824240|    0.012024|
|        5325|   -6.119670|   -8.074344|    0.824240|    0.012024|
|        5326|   -6.123035|   -8.080312|    0.824240|    0.012024|
|        5327|   -6.126579|   -8.086381|    0.824241|    0.012024|
|        5328|   -6.130277|   -8.092547|    0.824241|    0.012024|
|        5329|   -6.134099|   -8.098802|    0.824241|    0.012025|
|        5330|   -6.138013|   -8.105138|    0.824241|    0.012025|
|        5331|   -6.141982|   -8.111548|    0.824241|    0.012025|
|        5332|   -6.145965|   -8.118021|    0.824241|    0.012025|
|        5333|   -6.149921|   -8.124548|    0.824242|    0.012025|
|        5334|   -6.153811|   -8.131118|    0.824242|    0.012025|
|        5335|   -6.157596|   -8.137720|    0.824242|    0.012025|
|        5336|   -6.161236|   -8.144344|    0.824242|    0.012025|
|        5337|   -6.164699|   -8.150980|    0.824242|    0.012025|
|        5338|   -6.167956|   -8.157619|    0.824242|    0.012025|
|        5339|   -6.170986|   -8.164250|    0.824242|    0.012025|
|        5340|   -6.173773|   -8.170866|    0.824242|    0.012025|
|        5341|   -6.176310|   -8.177461|    0.824243|    0.012026|
|        5342|   -6.178600|   -8.184027|    0.824243|    0.012026|
|        5343|   -6.180651|   -8.190562|    0.824243|    0.012026|
|        5344|   -6.182480|   -8.197062|    0.824243|    0.012026|
|        5345|   -6.184112|   -8.203525|    0.824243|    0.012026|
|        5346|   -6.185575|   -8.209952|    0.824243|    0.012026|
|        5347|   -6.186906|   -8.216343|    0.824243|    0.012026|
|        5348|   -6.188143|   -8.222699|    0.824243|    0.012026|
|        5349|   -6.189328|   -8.229023|    0.824243|    0.012026|
|        5350|   -6.190503|   -8.235317|    0.824243|    0.012026|
|        5351|   -6.191711|   -8.241584|    0.824243|    0.012026|
|        5352|   -6.192994|   -8.247826|    0.824243|    0.012026|
|        5353|   -6.194393|   -8.254046|    0.824243|    0.012026|
|        5354|   -6.195944|   -8.260247|    0.824243|    0.012026|
|        5355|   -6.197682|   -8.266430|    0.824244|    0.012026|
|        5356|   -6.199638|   -8.272598|    0.824244|    0.012026|
|        5357|   -6.201838|   -8.278751|    0.824244|    0.012026|
|        5358|   -6.204304|   -8.284890|    0.824244|    0.012026|
|        5359|   -6.207054|   -8.291015|    0.824244|    0.012026|
|        5360|   -6.210101|   -8.297124|    0.824244|    0.012026|
|        5361|   -6.213453|   -8.303216|    0.824244|    0.012026|
|        5362|   -6.217112|   -8.309288|    0.824244|    0.012026|
|        5363|   -6.221078|   -8.315339|    0.824244|    0.012026|
|        5364|   -6.225342|   -8.321364|    0.824244|    0.012026|
|        5365|   -6.229893|   -8.327361|    0.824244|    0.012026|
|        5366|   -6.234715|   -8.333326|    0.824244|    0.012026|
|        5367|   -6.239786|   -8.339255|    0.824244|    0.012026|
|        5368|   -6.245080|   -8.345145|    0.824243|    0.012026|
|        5369|   -6.250567|   -8.350993|    0.824243|    0.012026|
|        5370|   -6.256211|   -8.356796|    0.824243|    0.012026|
|        5371|   -6.261974|   -8.362552|    0.824243|    0.012026|
|        5372|   -6.267814|   -8.368259|    0.824243|    0.012026|
|        5373|   -6.273687|   -8.373918|    0.824243|    0.012026|
|        5374|   -6.279544|   -8.379529|    0.824243|    0.012026|
|        5375|   -6.285339|   -8.385093|    0.824243|    0.012026|
|        5376|   -6.291020|   -8.390614|    0.824243|    0.012026|
|        5377|   -6.296542|   -8.396095|    0.824243|    0.012026|
|        5378|   -6.301861|   -8.401541|    0.824243|    0.012026|
|        5379|   -6.306932|   -8.406958|    0.824243|    0.012025|
|        5380|   -6.311719|   -8.412352|    0.824243|    0.012025|
|        5381|   -6.316189|   -8.417731|    0.824243|    0.012025|
|        5382|   -6.320315|   -8.423103|    0.824243|    0.012025|
|        5383|   -6.324077|   -8.428476|    0.824243|    0.012025|
|        5384|   -6.327463|   -8.433858|    0.824243|    0.012025|
|        5385|   -6.330467|   -8.439257|    0.824243|    0.012025|
|        5386|   -6.333092|   -8.444679|    0.824243|    0.012025|
|        5387|   -6.335344|   -8.450130|    0.824243|    0.012025|
|        5388|   -6.337238|   -8.455615|    0.824243|    0.012025|
|        5389|   -6.338793|   -8.461135|    0.824243|    0.012025|
|        5390|   -6.340031|   -8.466691|    0.824243|    0.012024|
|        5391|   -6.340979|   -8.472280|    0.824244|    0.012024|
|        5392|   -6.341662|   -8.477898|    0.824244|    0.012024|
|        5393|   -6.342108|   -8.483537|    0.824244|    0.012024|
|        5394|   -6.342346|   -8.489186|    0.824244|    0.012024|
|        5395|   -6.342402|   -8.494831|    0.824244|    0.012024|
|        5396|   -6.342299|   -8.500458|    0.824244|    0.012024|
|        5397|   -6.342062|   -8.506047|    0.824244|    0.012024|
|        5398|   -6.341711|   -8.511579|    0.824244|    0.012024|
|        5399|   -6.341263|   -8.517032|    0.824245|    0.012024|
|        5400|   -6.340734|   -8.522382|    0.824245|    0.012023|
|        5401|   -6.340137|   -8.527606|    0.824245|    0.012023|
|        5402|   -6.339483|   -8.532681|    0.824245|    0.012023|
|        5403|   -6.338779|   -8.537585|    0.824245|    0.012023|
|        5404|   -6.338034|   -8.542298|    0.824245|    0.012023|
|        5405|   -6.337253|   -8.546801|    0.824246|    0.012023|
|        5406|   -6.336439|   -8.551078|    0.824246|    0.012023|
|        5407|   -6.335596|   -8.555120|    0.824246|    0.012023|
|        5408|   -6.334728|   -8.558917|    0.824246|    0.012023|
|        5409|   -6.333835|   -8.562466|    0.824246|    0.012023|
|        5410|   -6.332921|   -8.565766|    0.824246|    0.012023|
|        5411|   -6.331988|   -8.568823|    0.824247|    0.012023|
|        5412|   -6.331039|   -8.571644|    0.824247|    0.012022|
|        5413|   -6.330075|   -8.574238|    0.824247|    0.012022|
|        5414|   -6.329102|   -8.576620|    0.824247|    0.012022|
|        5415|   -6.328121|   -8.578803|    0.824247|    0.012022|
|        5416|   -6.327139|   -8.580803|    0.824247|    0.012022|
|        5417|   -6.326160|   -8.582638|    0.824248|    0.012022|
|        5418|   -6.325189|   -8.584323|    0.824248|    0.012022|
|        5419|   -6.324234|   -8.585873|    0.824248|    0.012022|
|        5420|   -6.323301|   -8.587304|    0.824248|    0.012022|
|        5421|   -6.322398|   -8.588627|    0.824248|    0.012022|
|        5422|   -6.321535|   -8.589854|    0.824248|    0.012022|
|        5423|   -6.320720|   -8.590994|    0.824248|    0.012022|
|        5424|   -6.319965|   -8.592054|    0.824249|    0.012022|
|        5425|   -6.319279|   -8.593041|    0.824249|    0.012022|
|        5426|   -6.318674|   -8.593963|    0.824249|    0.012022|
|        5427|   -6.318163|   -8.594823|    0.824249|    0.012022|
|        5428|   -6.317759|   -8.595625|    0.824249|    0.012022|
|        5429|   -6.317475|   -8.596370|    0.824249|    0.012022|
|        5430|   -6.317325|   -8.597062|    0.824249|    0.012022|
|        5431|   -6.317323|   -8.597706|    0.824249|    0.012022|
|        5432|   -6.317483|   -8.598306|    0.824249|    0.012022|
|        5433|   -6.317818|   -8.598869|    0.824249|    0.012022|
|        5434|   -6.318344|   -8.599402|    0.824249|    0.012022|
|        5435|   -6.319074|   -8.599913|    0.824249|    0.012022|
|        5436|   -6.320020|   -8.600413|    0.824250|    0.012022|
|        5437|   -6.321194|   -8.600912|    0.824250|    0.012022|
|        5438|   -6.322608|   -8.601423|    0.824250|    0.012022|
|        5439|   -6.324271|   -8.601958|    0.824250|    0.012022|
|        5440|   -6.326191|   -8.602532|    0.824250|    0.012022|
|        5441|   -6.328374|   -8.603158|    0.824250|    0.012022|
|        5442|   -6.330825|   -8.603849|    0.824250|    0.012022|
|        5443|   -6.333546|   -8.604619|    0.824250|    0.012022|
|        5444|   -6.336537|   -8.605480|    0.824250|    0.012022|
|        5445|   -6.339794|   -8.606443|    0.824250|    0.012022|
|        5446|   -6.343312|   -8.607520|    0.824250|    0.012023|
|        5447|   -6.347084|   -8.608722|    0.824250|    0.012023|
|        5448|   -6.351095|   -8.610057|    0.824250|    0.012023|
|        5449|   -6.355329|   -8.611533|    0.824250|    0.012023|
|        5450|   -6.359768|   -8.613157|    0.824250|    0.012023|
|        5451|   -6.364388|   -8.614934|    0.824250|    0.012023|
|        5452|   -6.369162|   -8.616866|    0.824249|    0.012023|
|        5453|   -6.374061|   -8.618956|    0.824249|    0.012023|
|        5454|   -6.379050|   -8.621204|    0.824249|    0.012023|
|        5455|   -6.384092|   -8.623611|    0.824249|    0.012023|
|        5456|   -6.389149|   -8.626174|    0.824249|    0.012023|
|        5457|   -6.394178|   -8.628890|    0.824249|    0.012023|
|        5458|   -6.399134|   -8.631757|    0.824249|    0.012023|
|        5459|   -6.403974|   -8.634770|    0.824249|    0.012024|
|        5460|   -6.408651|   -8.637923|    0.824249|    0.012024|
|        5461|   -6.413121|   -8.641213|    0.824249|    0.012024|
|        5462|   -6.417340|   -8.644631|    0.824249|    0.012024|
|        5463|   -6.421269|   -8.648174|    0.824248|    0.012024|
|        5464|   -6.424870|   -8.651833|    0.824248|    0.012024|
|        5465|   -6.428114|   -8.655603|    0.824248|    0.012024|
|        5466|   -6.430973|   -8.659476|    0.824248|    0.012024|
|        5467|   -6.433430|   -8.663445|    0.824248|    0.012024|
|        5468|   -6.435472|   -8.667503|    0.824248|    0.012024|
|        5469|   -6.437096|   -8.671643|    0.824248|    0.012024|
|        5470|   -6.438306|   -8.675856|    0.824248|    0.012024|
|        5471|   -6.439111|   -8.680134|    0.824247|    0.012024|
|        5472|   -6.439530|   -8.684469|    0.824247|    0.012024|
|        5473|   -6.439587|   -8.688852|    0.824247|    0.012024|
|        5474|   -6.439312|   -8.693274|    0.824247|    0.012024|
|        5475|   -6.438737|   -8.697723|    0.824247|    0.012025|
|        5476|   -6.437900|   -8.702192|    0.824247|    0.012025|
|        5477|   -6.436841|   -8.706668|    0.824246|    0.012025|
|        5478|   -6.435599|   -8.711142|    0.824246|    0.012025|
|        5479|   -6.434218|   -8.715601|    0.824246|    0.012025|
|        5480|   -6.432736|   -8.720035|    0.824246|    0.012025|
|        5481|   -6.431193|   -8.724432|    0.824246|    0.012025|
|        5482|   -6.429628|   -8.728780|    0.824246|    0.012025|
|        5483|   -6.428077|   -8.733069|    0.824245|    0.012025|
|        5484|   -6.426572|   -8.737287|    0.824245|    0.012025|
|        5485|   -6.425144|   -8.741424|    0.824245|    0.012025|
|        5486|   -6.423822|   -8.745470|    0.824245|    0.012025|
|        5487|   -6.422630|   -8.749418|    0.824245|    0.012025|
|        5488|   -6.421591|   -8.753260|    0.824245|    0.012025|
|        5489|   -6.420723|   -8.756989|    0.824244|    0.012025|
|        5490|   -6.420045|   -8.760602|    0.824244|    0.012025|
|        5491|   -6.419569|   -8.764095|    0.824244|    0.012025|
|        5492|   -6.419307|   -8.767468|    0.824244|    0.012025|
|        5493|   -6.419269|   -8.770719|    0.824244|    0.012025|
|        5494|   -6.419462|   -8.773852|    0.824244|    0.012025|
|        5495|   -6.419890|   -8.776868|    0.824244|    0.012025|
|        5496|   -6.420559|   -8.779773|    0.824244|    0.012024|
|        5497|   -6.421468|   -8.782571|    0.824244|    0.012024|
|        5498|   -6.422619|   -8.785269|    0.824243|    0.012024|
|        5499|   -6.424011|   -8.787874|    0.824244|    0.012010|
+-----------------------------------------------------------------------+
|Fixed CL Mode (Finite Difference)       |Value                         |
+-----------------------------------------------------------------------+
|Delta CL / Delta AoA                    |0.24329                       |
|Delta CD / Delta CL                     |0.0176476                     |
|Delta CMz / Delta CL                    |0.00218483                    |
+-----------------------------------------------------------------------+
Writing Flow Meta-Data file: flow.meta

----------------------------- Solver Exit -------------------------------

Maximum number of iterations reached (ITER = 5500) before convergence.
+-----------------------------------------------------------------------+
|      Convergence Field     |     Value    |   Criterion  |  Converged |
+-----------------------------------------------------------------------+
|                    rms[Rho]|      -6.42401|         < -12|          No|
+-----------------------------------------------------------------------+
-------------------------------------------------------------------------

--------------------------- Finalizing Solver ---------------------------
Deleted CNumerics container.
Deleted CIntegration container.
Deleted CSolver container.
Deleted CIteration container.
Deleted CInterface container.
Deleted CGeometry container.
Deleted CFreeFormDefBox class.
Deleted CSurfaceMovement class.
Deleted CVolumetricMovement class.
Deleted CConfig container.
Deleted nInst container.
Deleted COutput class.
-------------------------------------------------------------------------

------------------------- Exit Success (SU2_CFD) ------------------------


-------------------------------------------------------------------------
|    ___ _   _ ___                                                      |
|   / __| | | |_  )   Release 8.0.0 "Harrier"                           |
|   \__ \ |_| |/ /                                                      |
|   |___/\___//___|   Suite (Solution Exporting Code)                   |
|                                                                       |
-------------------------------------------------------------------------
| SU2 Project Website: https://su2code.github.io                        |
|                                                                       |
| The SU2 Project is maintained by the SU2 Foundation                   |
| (http://su2foundation.org)                                            |
-------------------------------------------------------------------------
| Copyright 2012-2023, SU2 Contributors                                 |
|                                                                       |
| SU2 is free software; you can redistribute it and/or                  |
| modify it under the terms of the GNU Lesser General Public            |
| License as published by the Free Software Foundation; either          |
| version 2.1 of the License, or (at your option) any later version.    |
|                                                                       |
| SU2 is distributed in the hope that it will be useful,                |
| but WITHOUT ANY WARRANTY; without even the implied warranty of        |
| MERCHANTABILITY or FITNESS FOR A PARTICULAR PURPOSE. See the GNU      |
| Lesser General Public License for more details.                       |
|                                                                       |
| You should have received a copy of the GNU Lesser General Public      |
| License along with SU2. If not, see <http://www.gnu.org/licenses/>.   |
-------------------------------------------------------------------------

----------------- Physical Case Definition ( Zone 0 ) -------------------
Input mesh file name: mesh_RAE2822_turb_deform.su2

-------------------- Output Information ( Zone 0 ) ----------------------
The tabular file format is CSV (.csv).
Flow variables file name: flow.

------------- Config File Boundary Information ( Zone 0 ) ---------------
+-----------------------------------------------------------------------+
|                        Marker Type|                        Marker Name|
+-----------------------------------------------------------------------+
|                          Far-field|                           FARFIELD|
+-----------------------------------------------------------------------+
|                     Heat flux wall|                            AIRFOIL|
+-----------------------------------------------------------------------+
Two dimensional problem.
13937 grid points before partitioning.
22842 volume elements before partitioning.
2 surface markers.
192 boundary elements in index 0 (Marker = AIRFOIL).
40 boundary elements in index 1 (Marker = FARFIELD).
Executing the partitioning functions.
Building the graph adjacency structure.
Calling ParMETIS... graph partitioning complete (831 edge cuts).
Distributing ParMETIS coloring.
Rebalancing vertices.
Rebalancing volume element connectivity.
Rebalancing markers and surface elements.
14875 vertices including ghost points. 
23674 interior elements including halo cells. 
18780 triangles.
4894 quadrilaterals.
Establishing MPI communication patterns.
Identify vertices.
Storing a mapping from global to local point index.

------------------------- Solution Postprocessing -----------------------
Reading and storing the solution from restart_flow.
Volume output fields: COORDINATES, SOLUTION
  Info: Ignoring the following screen output fields:
  RMS_DENSITY, RMS_NU_TILDE, LIFT, DRAG
Screen output fields: INNER_ITER
  Info: Ignoring the following history output groups:
  RMS_RES, AERO_COEFF
History output group(s): ITER
Warning: No (valid) fields chosen for convergence monitoring. Convergence monitoring inactive.
Warning: No (valid) fields chosen for time convergence monitoring. Time convergence monitoring inactive.
|Paraview                           |flow.vtu                           |
|Paraview surface                   |surface_flow.vtu                   |
|CSV file                           |surface_flow.csv                   |

------------------------- Finalize Solver -------------------------
Deleted CGeometry container.
Deleted CSolver class.
Deleted CConfig container.
Deleted COutput class.

Completed in 0.017359 seconds on 6 cores.

------------------------- Exit Success (SU2_SOL) ------------------------

