
-------------------------------------------------------------------------
|    ___ _   _ ___                                                      |
|   / __| | | |_  )   Release 8.0.0 "Harrier"                           |
|   \__ \ |_| |/ /                                                      |
|   |___/\___//___|   Suite (Computational Fluid Dynamics Code)         |
|                                                                       |
-------------------------------------------------------------------------
| SU2 Project Website: https://su2code.github.io                        |
|                                                                       |
| The SU2 Project is maintained by the SU2 Foundation                   |
| (http://su2foundation.org)                                            |
-------------------------------------------------------------------------
| Copyright 2012-2023, SU2 Contributors                                 |
|                                                                       |
| SU2 is free software; you can redistribute it and/or                  |
| modify it under the terms of the GNU Lesser General Public            |
| License as published by the Free Software Foundation; either          |
| version 2.1 of the License, or (at your option) any later version.    |
|                                                                       |
| SU2 is distributed in the hope that it will be useful,                |
| but WITHOUT ANY WARRANTY; without even the implied warranty of        |
| MERCHANTABILITY or FITNESS FOR A PARTICULAR PURPOSE. See the GNU      |
| Lesser General Public License for more details.                       |
|                                                                       |
| You should have received a copy of the GNU Lesser General Public      |
| License along with SU2. If not, see <http://www.gnu.org/licenses/>.   |
-------------------------------------------------------------------------

Parsing config file for zone 0

----------------- Physical Case Definition ( Zone 0 ) -------------------
Compressible RANS equations.
Turbulence model: Spalart-Allmaras-noft2
Hybrid RANS/LES: No Hybrid RANS/LES
Mach number: 0.734.
Angle of attack (AoA): 2.31 deg, and angle of sideslip (AoS): 0 deg.
Reynolds number: 6.5e+06. Reference length 1.
Fixed CL mode, target value: 0.824.
Reading and writing binary SU2 native restart files.
Read flow solution from: solution_flow.dat.
Dimensional simulation.
The reference area is 1 m^2.
The semi-span will be computed using the max y(3D) value.
The reference length is 1 m.
Reference origin for moment evaluation is (0.25, 0, 0).
Surface(s) where the force coefficients are evaluated: AIRFOIL.

Surface(s) plotted in the output file: AIRFOIL.
Surface(s) affected by the design variables: AIRFOIL.
Input mesh file name: mesh_RAE2822_turb_deform.su2

--------------- Space Numerical Integration ( Zone 0 ) ------------------
Jameson-Schmidt-Turkel scheme (2nd order in space) for the flow inviscid terms.
JST viscous coefficients (2nd & 4th): 0.5, 0.02.
The method includes a grid stretching correction (p = 0.3).
Scalar upwind solver for the turbulence model.
First order integration in space.
Average of gradients with correction (viscous flow terms).
Average of gradients with correction (viscous turbulence terms).
Gradient for viscous and source terms: inverse-distance weighted Least-Squares.

--------------- Time Numerical Integration  ( Zone 0 ) ------------------
Local time stepping (steady state simulation).
Euler implicit method for the flow equations.
FGMRES is used for solving the linear system.
Using a ILU(0) preconditioning.
Convergence criteria of the linear solver: 1e-06.
Max number of linear iterations: 10.
No CFL adaptation.
Courant-Friedrichs-Lewy number:       10
Euler implicit time integration for the turbulence model.

------------------ Convergence Criteria  ( Zone 0 ) ---------------------
Maximum number of solver subiterations: 5500.
Begin convergence monitoring at iteration 10.
Residual minimum value: 1e-12.
Cauchy series min. value: 1e-06.
Number of Cauchy elements: 100.
Begin windowed time average at iteration 0.

-------------------- Output Information ( Zone 0 ) ----------------------
File writing frequency: 
+------------------------------------+
|                     File| Frequency|
+------------------------------------+
|                  RESTART|     10000|
|                 PARAVIEW|     10000|
|         SURFACE_PARAVIEW|     10000|
|              SURFACE_CSV|     10000|
+------------------------------------+
Writing the convergence history file every 1 inner iterations.
Writing the screen convergence history every 1 inner iterations.
The tabular file format is CSV (.csv).
Convergence history file name: history_direct.
Forces breakdown file name: forces_breakdown.dat.
Surface file name: surface_flow.
Volume file name: flow.
Restart file name: restart_flow.dat.

------------- Config File Boundary Information ( Zone 0 ) ---------------
+-----------------------------------------------------------------------+
|                        Marker Type|                        Marker Name|
+-----------------------------------------------------------------------+
|                          Far-field|                           FARFIELD|
+-----------------------------------------------------------------------+
|                     Heat flux wall|                            AIRFOIL|
+-----------------------------------------------------------------------+

-------------------- Output Preprocessing ( Zone 0 ) --------------------

WARNING: SURFACE_PRESSURE_DROP can only be computed for at least 2 surfaces (outlet, inlet, ...)

Screen output fields: INNER_ITER, RMS_DENSITY, RMS_NU_TILDE, LIFT, DRAG
History output group(s): ITER, RMS_RES, AERO_COEFF
Convergence field(s): RMS_DENSITY
Warning: No (valid) fields chosen for time convergence monitoring. Time convergence monitoring inactive.
Volume output fields: COORDINATES, SOLUTION, PRIMITIVE

------------------- Geometry Preprocessing ( Zone 0 ) -------------------
Two dimensional problem.
13937 grid points before partitioning.
22842 volume elements before partitioning.
2 surface markers.
192 boundary elements in index 0 (Marker = AIRFOIL).
40 boundary elements in index 1 (Marker = FARFIELD).
Executing the partitioning functions.
Building the graph adjacency structure.
Calling ParMETIS... graph partitioning complete (831 edge cuts).
Distributing ParMETIS coloring.
Rebalancing vertices.
Rebalancing volume element connectivity.
Rebalancing markers and surface elements.
14875 vertices including ghost points. 
23674 interior elements including halo cells. 
18780 triangles.
4894 quadrilaterals.
Establishing MPI communication patterns.
Setting point connectivity.
Renumbering points (Reverse Cuthill McKee Ordering).
Recomputing point connectivity.
Setting element connectivity.
Checking the numerical grid orientation.
All volume elements are correctly orientend.
All surface elements are correctly orientend.
Identifying edges and vertices.
Setting the control volume structure.
Area of the computational grid: 32209.9.
Searching for the closest normal neighbors to the surfaces.
Storing a mapping from global to local point index.
Compute the surface curvature.
Max K: 208.047. Mean K: 8.37656. Standard deviation K: 27.3005.
Checking for periodicity.
Computing mesh quality statistics for the dual control volumes.
+--------------------------------------------------------------+
|           Mesh Quality Metric|        Minimum|        Maximum|
+--------------------------------------------------------------+
|    Orthogonality Angle (deg.)|        74.4483|        89.9998|
|     CV Face Area Aspect Ratio|        1.00104|        3359.05|
|           CV Sub-Volume Ratio|        1.00066|        1219.89|
+--------------------------------------------------------------+
Finding max control volume width.
Communicating number of neighbors.
Wetted area = 2.02132 m.
Area projection in the x-plane = 0.128048 m, y-plane = 0.995873 m.
Max. coordinate in the x-direction = 1 m, y-direction = 0.0615183 m.
Min. coordinate in the x-direction = 0 m, y-direction = -0.0626497 m.
Computing wall distances.

-------------------- Solver Preprocessing ( Zone 0 ) --------------------
WARNING: AoA in the solution file (2.76568 deg.) +
         AoA offset in mesh file (0 deg.) = 2.76568 deg.
WARNING: SU2 will use the dCD/dCL provided in the direct solution file: 0.0205539.
WARNING: SU2 will use the dCMz/dCL provided in the direct solution file: 0.014904.
Viscous flow: Computing pressure using the ideal gas law
based on the free-stream temperature and a density computed
from the Reynolds number.
Force coefficients computed using free-stream values.

-- Models:
+------------------------------------------------------------------------------+
|          Viscosity Model|        Conductivity Model|              Fluid Model|
+------------------------------------------------------------------------------+
|               SUTHERLAND|          CONSTANT_PRANDTL|             STANDARD_AIR|
+------------------------------------------------------------------------------+
-- Fluid properties:
+------------------------------------------------------------------------------+
|                  Name|    Dim. value|    Ref. value|      Unit|Non-dim. value|
+------------------------------------------------------------------------------+
|        Ref. Viscosity|     1.716e-05|             1|   N.s/m^2|     1.716e-05|
|      Sutherland Temp.|        273.15|             1|         K|        273.15|
|     Sutherland Const.|         110.4|             1|         K|         110.4|
+------------------------------------------------------------------------------+
|        Prandtl (Lam.)|             -|             -|         -|          0.71|
|       Prandtl (Turb.)|             -|             -|         -|           0.9|
+------------------------------------------------------------------------------+
|          Gas Constant|       287.058|             1|  N.m/kg.K|       287.058|
|      Spec. Heat Ratio|             -|             -|         -|           1.4|
+------------------------------------------------------------------------------+
-- Initial and free-stream conditions:
+------------------------------------------------------------------------------+
|                  Name|    Dim. value|    Ref. value|      Unit|Non-dim. value|
+------------------------------------------------------------------------------+
|       Static Pressure|         38515|             1|        Pa|         38515|
|               Density|      0.465631|             1|    kg/m^3|      0.465631|
|           Temperature|        288.15|             1|         K|        288.15|
|          Total Energy|        237984|             1|   m^2/s^2|        237984|
|            Velocity-X|       249.487|             1|       m/s|       249.487|
|            Velocity-Y|       12.0522|             1|       m/s|       12.0522|
|    Velocity Magnitude|       249.778|             1|       m/s|       249.778|
+------------------------------------------------------------------------------+
|             Viscosity|    1.7893e-05|             1|   N.s/m^2|    1.7893e-05|
|          Conductivity|             -|             1|   W/m^2.K|             -|
|     Turb. Kin. Energy|       233.959|             1|   m^2/s^2|       233.959|
|     Spec. Dissipation|        608834|             1|       1/s|        608834|
+------------------------------------------------------------------------------+
|           Mach Number|             -|             -|         -|         0.734|
|       Reynolds Number|             -|             -|         -|       6.5e+06|
+------------------------------------------------------------------------------+
Initialize Jacobian structure (Navier-Stokes). MG level: 0.
Initialize Jacobian structure (SA model).

------------------- Numerics Preprocessing ( Zone 0 ) -------------------

----------------- Integration Preprocessing ( Zone 0 ) ------------------

------------------- Iteration Preprocessing ( Zone 0 ) ------------------
Euler/Navier-Stokes/RANS fluid iteration.

------------------------------ Begin Solver -----------------------------

Simulation Run using the Single-zone Driver
WARNING: SU2 was not compiled for an AVX-capable architecture. Performance could be better,
         see https://su2code.github.io/docs_v7/Build-SU2-Linux-MacOS/#compiler-optimizations
+----------------------------------------------------------------+
|  Inner_Iter|    rms[Rho]|     rms[nu]|          CL|          CD|
+----------------------------------------------------------------+
|           0|   -5.680698|   -7.096011|    0.824018|    0.011986|
|           1|   -5.735615|   -7.193532|    0.824026|    0.011989|
|           2|   -5.793313|   -7.319701|    0.824028|    0.011990|
|           3|   -5.838126|   -7.471824|    0.824027|    0.011991|
|           4|   -5.870400|   -7.629299|    0.824024|    0.011991|
|           5|   -5.890805|   -7.737077|    0.824021|    0.011991|
|           6|   -5.900556|   -7.759088|    0.824020|    0.011991|
|           7|   -5.902301|   -7.736317|    0.824019|    0.011991|
|           8|   -5.898789|   -7.704696|    0.824020|    0.011991|
|           9|   -5.891897|   -7.670568|    0.824021|    0.011992|
|          10|   -5.882724|   -7.634485|    0.824023|    0.011993|
|          11|   -5.872095|   -7.600852|    0.824026|    0.011994|
|          12|   -5.860815|   -7.575851|    0.824028|    0.011995|
|          13|   -5.849624|   -7.564107|    0.824030|    0.011996|
|          14|   -5.839061|   -7.567751|    0.824032|    0.011998|
|          15|   -5.829430|   -7.586562|    0.824034|    0.011999|
|          16|   -5.820875|   -7.617653|    0.824035|    0.012001|
|          17|   -5.813482|   -7.654227|    0.824036|    0.012003|
|          18|   -5.807350|   -7.684637|    0.824036|    0.012004|
|          19|   -5.802582|   -7.696056|    0.824035|    0.012006|
|          20|   -5.799235|   -7.684260|    0.824034|    0.012007|
|          21|   -5.797274|   -7.657461|    0.824032|    0.012008|
|          22|   -5.796547|   -7.627792|    0.824030|    0.012009|
|          23|   -5.796814|   -7.603580|    0.824027|    0.012010|
|          24|   -5.797796|   -7.588440|    0.824024|    0.012010|
|          25|   -5.799234|   -7.582898|    0.824021|    0.012011|
|          26|   -5.800922|   -7.585692|    0.824017|    0.012011|
|          27|   -5.802722|   -7.594432|    0.824014|    0.012011|
|          28|   -5.804540|   -7.606006|    0.824011|    0.012011|
|          29|   -5.806292|   -7.617089|    0.824008|    0.012011|
|          30|   -5.807874|   -7.624931|    0.824005|    0.012011|
|          31|   -5.809136|   -7.628189|    0.824002|    0.012011|
|          32|   -5.809895|   -7.627252|    0.824000|    0.012011|
|          33|   -5.809956|   -7.623820|    0.823997|    0.012010|
|          34|   -5.809156|   -7.620059|    0.823995|    0.012010|
|          35|   -5.807400|   -7.617908|    0.823993|    0.012009|
|          36|   -5.804685|   -7.618748|    0.823990|    0.012009|
|          37|   -5.801102|   -7.623370|    0.823988|    0.012008|
|          38|   -5.796806|   -7.632064|    0.823986|    0.012007|
|          39|   -5.791994|   -7.644711|    0.823984|    0.012007|
|          40|   -5.786862|   -7.660848|    0.823982|    0.012006|
|          41|   -5.781587|   -7.679682|    0.823980|    0.012005|
|          42|   -5.776309|   -7.700074|    0.823978|    0.012005|
|          43|   -5.771125|   -7.720542|    0.823975|    0.012004|
|          44|   -5.766091|   -7.739329|    0.823973|    0.012003|
|          45|   -5.761221|   -7.754617|    0.823971|    0.012003|
|          46|   -5.756489|   -7.764889|    0.823969|    0.012002|
|          47|   -5.751838|   -7.769349|    0.823967|    0.012001|
|          48|   -5.747186|   -7.768169|    0.823966|    0.012001|
|          49|   -5.742438|   -7.762409|    0.823964|    0.012000|
|          50|   -5.737500|   -7.753653|    0.823962|    0.012000|
|          51|   -5.732296|   -7.743581|    0.823961|    0.011999|
|          52|   -5.726778|   -7.733657|    0.823960|    0.011999|
|          53|   -5.720937|   -7.724983|    0.823959|    0.011998|
|          54|   -5.714803|   -7.718290|    0.823959|    0.011997|
|          55|   -5.708438|   -7.713979|    0.823959|    0.011997|
|          56|   -5.701929|   -7.712198|    0.823959|    0.011996|
|          57|   -5.695375|   -7.712898|    0.823959|    0.011996|
|          58|   -5.688872|   -7.715895|    0.823960|    0.011995|
|          59|   -5.682504|   -7.720908|    0.823961|    0.011995|
|          60|   -5.676336|   -7.727594|    0.823962|    0.011994|
|          61|   -5.670410|   -7.735576|    0.823963|    0.011994|
|          62|   -5.664746|   -7.744459|    0.823964|    0.011993|
|          63|   -5.659345|   -7.753850|    0.823966|    0.011993|
|          64|   -5.654197|   -7.763364|    0.823967|    0.011992|
|          65|   -5.649283|   -7.772643|    0.823969|    0.011992|
|          66|   -5.644586|   -7.781362|    0.823971|    0.011991|
|          67|   -5.640091|   -7.789258|    0.823972|    0.011991|
|          68|   -5.635791|   -7.796141|    0.823974|    0.011991|
|          69|   -5.631689|   -7.801915|    0.823976|    0.011990|
|          70|   -5.627793|   -7.806584|    0.823977|    0.011990|
|          71|   -5.624119|   -7.810242|    0.823979|    0.011989|
|          72|   -5.620684|   -7.813052|    0.823980|    0.011989|
|          73|   -5.617504|   -7.815207|    0.823981|    0.011989|
|          74|   -5.614591|   -7.816897|    0.823982|    0.011989|
|          75|   -5.611950|   -7.818270|    0.823983|    0.011988|
|          76|   -5.609581|   -7.819414|    0.823984|    0.011988|
|          77|   -5.607472|   -7.820350|    0.823985|    0.011988|
|          78|   -5.605605|   -7.821041|    0.823985|    0.011988|
|          79|   -5.603957|   -7.821416|    0.823986|    0.011987|
|          80|   -5.602500|   -7.821395|    0.823986|    0.011987|
|          81|   -5.601202|   -7.820921|    0.823987|    0.011987|
|          82|   -5.600036|   -7.819986|    0.823987|    0.011987|
|          83|   -5.598975|   -7.818640|    0.823987|    0.011987|
|          84|   -5.597997|   -7.816992|    0.823988|    0.011987|
|          85|   -5.597089|   -7.815197|    0.823988|    0.011987|
|          86|   -5.596242|   -7.813436|    0.823988|    0.011986|
|          87|   -5.595458|   -7.811893|    0.823988|    0.011986|
|          88|   -5.594747|   -7.810738|    0.823988|    0.011986|
|          89|   -5.594125|   -7.810105|    0.823989|    0.011986|
|          90|   -5.593618|   -7.810093|    0.823989|    0.011986|
|          91|   -5.593254|   -7.810756|    0.823989|    0.011986|
|          92|   -5.593069|   -7.812112|    0.823989|    0.011986|
|          93|   -5.593100|   -7.814142|    0.823989|    0.011986|
|          94|   -5.593383|   -7.816803|    0.823990|    0.011986|
|          95|   -5.593956|   -7.820035|    0.823990|    0.011986|
|          96|   -5.594850|   -7.823769|    0.823990|    0.011986|
|          97|   -5.596094|   -7.827934|    0.823991|    0.011987|
|          98|   -5.597709|   -7.832460|    0.823991|    0.011987|
|          99|   -5.599705|   -7.837284|    0.823992|    0.011987|
|         100|   -5.602084|   -7.842350|    0.823992|    0.011987|
|         101|   -5.604832|   -7.847613|    0.823993|    0.011988|
+-----------------------------------------------------------------------+
|Fixed CL Mode                           |Value                         |
+-----------------------------------------------------------------------+
|Current CL                              |0.823993                      |
|Target CL                               |0.824                         |
|Previous AOA                            |2.76568                       |
|Changed AoA by                          |3.88938e-05                   |
+-----------------------------------------------------------------------+
+----------------------------------------------------------------+
|  Inner_Iter|    rms[Rho]|     rms[nu]|          CL|          CD|
+----------------------------------------------------------------+
|         102|   -4.602052|   -7.849178|    0.823993|    0.011988|
|         103|   -4.984649|   -7.856786|    0.823994|    0.011988|
|         104|   -5.225482|   -7.862946|    0.823995|    0.011989|
|         105|   -5.296342|   -7.868894|    0.823995|    0.011989|
|         106|   -5.334884|   -7.874827|    0.823996|    0.011989|
|         107|   -5.380244|   -7.880788|    0.823997|    0.011990|
|         108|   -5.429992|   -7.886785|    0.823997|    0.011990|
|         109|   -5.472798|   -7.892819|    0.823998|    0.011990|
|         110|   -5.501817|   -7.898887|    0.823999|    0.011991|
|         111|   -5.519155|   -7.904982|    0.823999|    0.011991|
|         112|   -5.529871|   -7.911096|    0.824000|    0.011991|
|         113|   -5.537035|   -7.917216|    0.824000|    0.011992|
|         114|   -5.542045|   -7.923326|    0.824001|    0.011992|
|         115|   -5.546113|   -7.929398|    0.824001|    0.011992|
|         116|   -5.550504|   -7.935392|    0.824002|    0.011993|
|         117|   -5.555979|   -7.941262|    0.824002|    0.011993|
|         118|   -5.562435|   -7.946960|    0.824002|    0.011993|
|         119|   -5.569102|   -7.952445|    0.824002|    0.011994|
|         120|   -5.575108|   -7.957684|    0.824002|    0.011994|
|         121|   -5.579987|   -7.962655|    0.824002|    0.011994|
|         122|   -5.583819|   -7.967348|    0.824002|    0.011995|
|         123|   -5.587000|   -7.971770|    0.824002|    0.011995|
|         124|   -5.589886|   -7.975942|    0.824002|    0.011995|
|         125|   -5.592593|   -7.979899|    0.824002|    0.011995|
|         126|   -5.594993|   -7.983690|    0.824002|    0.011996|
|         127|   -5.596851|   -7.987372|    0.824002|    0.011996|
|         128|   -5.597953|   -7.991005|    0.824002|    0.011996|
|         129|   -5.598188|   -7.994650|    0.824001|    0.011996|
|         130|   -5.597564|   -7.998363|    0.824001|    0.011996|
|         131|   -5.596193|   -8.002189|    0.824001|    0.011997|
|         132|   -5.594261|   -8.006162|    0.824001|    0.011997|
|         133|   -5.591992|   -8.010298|    0.824001|    0.011997|
|         134|   -5.589603|   -8.014595|    0.824001|    0.011997|
|         135|   -5.587266|   -8.019036|    0.824001|    0.011997|
|         136|   -5.585088|   -8.023587|    0.824001|    0.011997|
|         137|   -5.583097|   -8.028197|    0.824001|    0.011998|
|         138|   -5.581255|   -8.032804|    0.824001|    0.011998|
|         139|   -5.579479|   -8.037338|    0.824001|    0.011998|
|         140|   -5.577665|   -8.041726|    0.824001|    0.011998|
|         141|   -5.575712|   -8.045893|    0.824001|    0.011998|
|         142|   -5.573546|   -8.049773|    0.824001|    0.011998|
|         143|   -5.571130|   -8.053310|    0.824001|    0.011999|
|         144|   -5.568474|   -8.056462|    0.824001|    0.011999|
|         145|   -5.565625|   -8.059207|    0.824001|    0.011999|
|         146|   -5.562655|   -8.061542|    0.824002|    0.011999|
|         147|   -5.559644|   -8.063484|    0.824002|    0.011999|
|         148|   -5.556665|   -8.065070|    0.824002|    0.011999|
|         149|   -5.553769|   -8.066353|    0.824002|    0.011999|
|         150|   -5.550988|   -8.067400|    0.824002|    0.012000|
|         151|   -5.548329|   -8.068284|    0.824002|    0.012000|
|         152|   -5.545787|   -8.069082|    0.824002|    0.012000|
|         153|   -5.543349|   -8.069870|    0.824002|    0.012000|
|         154|   -5.541001|   -8.070718|    0.824002|    0.012000|
|         155|   -5.538733|   -8.071686|    0.824002|    0.012000|
|         156|   -5.536547|   -8.072820|    0.824002|    0.012000|
|         157|   -5.534446|   -8.074153|    0.824002|    0.012000|
|         158|   -5.532445|   -8.075702|    0.824002|    0.012000|
|         159|   -5.530558|   -8.077468|    0.824002|    0.012000|
|         160|   -5.528803|   -8.079436|    0.824002|    0.012000|
|         161|   -5.527196|   -8.081581|    0.824002|    0.012000|
|         162|   -5.525748|   -8.083868|    0.824001|    0.012000|
|         163|   -5.524468|   -8.086256|    0.824001|    0.012000|
|         164|   -5.523364|   -8.088702|    0.824001|    0.012000|
|         165|   -5.522435|   -8.091166|    0.824001|    0.012000|
|         166|   -5.521683|   -8.093612|    0.824001|    0.012000|
|         167|   -5.521104|   -8.096013|    0.824001|    0.012000|
|         168|   -5.520692|   -8.098356|    0.824001|    0.012000|
|         169|   -5.520439|   -8.100638|    0.824001|    0.012000|
|         170|   -5.520337|   -8.102873|    0.824001|    0.012000|
|         171|   -5.520372|   -8.105083|    0.824001|    0.012000|
|         172|   -5.520531|   -8.107305|    0.824001|    0.012000|
|         173|   -5.520799|   -8.109580|    0.824001|    0.011999|
|         174|   -5.521160|   -8.111954|    0.824002|    0.011999|
|         175|   -5.521595|   -8.114473|    0.824002|    0.011999|
|         176|   -5.522091|   -8.117177|    0.824002|    0.011999|
|         177|   -5.522632|   -8.120101|    0.824002|    0.011999|
|         178|   -5.523207|   -8.123271|    0.824002|    0.011999|
|         179|   -5.523809|   -8.126704|    0.824002|    0.011999|
|         180|   -5.524436|   -8.130402|    0.824003|    0.011999|
|         181|   -5.525091|   -8.134355|    0.824003|    0.011998|
|         182|   -5.525782|   -8.138539|    0.824003|    0.011998|
|         183|   -5.526527|   -8.142918|    0.824003|    0.011998|
|         184|   -5.527346|   -8.147444|    0.824003|    0.011998|
|         185|   -5.528267|   -8.152060|    0.824004|    0.011998|
|         186|   -5.529321|   -8.156705|    0.824004|    0.011998|
|         187|   -5.530544|   -8.161314|    0.824004|    0.011998|
|         188|   -5.531972|   -8.165823|    0.824004|    0.011997|
|         189|   -5.533644|   -8.170175|    0.824004|    0.011997|
|         190|   -5.535593|   -8.174319|    0.824004|    0.011997|
|         191|   -5.537854|   -8.178219|    0.824005|    0.011997|
|         192|   -5.540453|   -8.181851|    0.824005|    0.011997|
|         193|   -5.543411|   -8.185210|    0.824005|    0.011997|
|         194|   -5.546740|   -8.188306|    0.824005|    0.011996|
|         195|   -5.550442|   -8.191164|    0.824005|    0.011996|
|         196|   -5.554509|   -8.193824|    0.824005|    0.011996|
|         197|   -5.558920|   -8.196341|    0.824005|    0.011996|
|         198|   -5.563641|   -8.198776|    0.824005|    0.011996|
|         199|   -5.568626|   -8.201196|    0.824005|    0.011995|
|         200|   -5.573813|   -8.203670|    0.824005|    0.011995|
|         201|   -5.579132|   -8.206267|    0.824005|    0.011995|
+-----------------------------------------------------------------------+
|Fixed CL Mode                           |Value                         |
+-----------------------------------------------------------------------+
|Current CL                              |0.824005                      |
|Target CL                               |0.824                         |
|Previous AOA                            |2.76572                       |
|Changed AoA by                          |-2.69014e-05                  |
+-----------------------------------------------------------------------+
+----------------------------------------------------------------+
|  Inner_Iter|    rms[Rho]|     rms[nu]|          CL|          CD|
+----------------------------------------------------------------+
|         202|   -4.759205|   -8.197738|    0.824005|    0.011995|
|         203|   -5.122987|   -8.205612|    0.824006|    0.011994|
|         204|   -5.318638|   -8.210193|    0.824006|    0.011994|
|         205|   -5.369588|   -8.214561|    0.824006|    0.011994|
|         206|   -5.403422|   -8.219197|    0.824006|    0.011994|
|         207|   -5.445518|   -8.224194|    0.824006|    0.011994|
|         208|   -5.491306|   -8.229558|    0.824006|    0.011994|
|         209|   -5.530940|   -8.235260|    0.824006|    0.011994|
|         210|   -5.558575|   -8.241243|    0.824006|    0.011993|
|         211|   -5.575186|   -8.247431|    0.824006|    0.011993|
|         212|   -5.584442|   -8.253733|    0.824006|    0.011993|
|         213|   -5.589118|   -8.260074|    0.824006|    0.011993|
|         214|   -5.590945|   -8.266377|    0.824006|    0.011993|
|         215|   -5.591399|   -8.272562|    0.824006|    0.011993|
|         216|   -5.591802|   -8.278544|    0.824006|    0.011993|
|         217|   -5.592976|   -8.284229|    0.824006|    0.011993|
|         218|   -5.595076|   -8.289526|    0.824007|    0.011993|
|         219|   -5.597772|   -8.294353|    0.824007|    0.011993|
|         220|   -5.600624|   -8.298637|    0.824007|    0.011993|
|         221|   -5.603395|   -8.302321|    0.824007|    0.011993|
|         222|   -5.606144|   -8.305365|    0.824007|    0.011993|
|         223|   -5.609118|   -8.307752|    0.824007|    0.011993|
|         224|   -5.612583|   -8.309491|    0.824007|    0.011993|
|         225|   -5.616711|   -8.310617|    0.824008|    0.011993|
|         226|   -5.621565|   -8.311192|    0.824008|    0.011993|
|         227|   -5.627147|   -8.311299|    0.824008|    0.011993|
|         228|   -5.633439|   -8.311038|    0.824008|    0.011993|
|         229|   -5.640426|   -8.310516|    0.824008|    0.011993|
|         230|   -5.648104|   -8.309848|    0.824009|    0.011993|
|         231|   -5.656477|   -8.309144|    0.824009|    0.011993|
|         232|   -5.665557|   -8.308514|    0.824009|    0.011993|
|         233|   -5.675371|   -8.308052|    0.824009|    0.011993|
|         234|   -5.685951|   -8.307846|    0.824010|    0.011993|
|         235|   -5.697325|   -8.307965|    0.824010|    0.011993|
|         236|   -5.709505|   -8.308465|    0.824010|    0.011994|
|         237|   -5.722469|   -8.309383|    0.824010|    0.011994|
|         238|   -5.736150|   -8.310739|    0.824011|    0.011994|
|         239|   -5.750436|   -8.312538|    0.824011|    0.011994|
|         240|   -5.765166|   -8.314764|    0.824011|    0.011994|
|         241|   -5.780138|   -8.317386|    0.824011|    0.011994|
|         242|   -5.795125|   -8.320358|    0.824012|    0.011994|
|         243|   -5.809892|   -8.323616|    0.824012|    0.011994|
|         244|   -5.824222|   -8.327088|    0.824012|    0.011995|
|         245|   -5.837934|   -8.330688|    0.824013|    0.011995|
|         246|   -5.850893|   -8.334324|    0.824013|    0.011995|
|         247|   -5.863008|   -8.337899|    0.824013|    0.011995|
|         248|   -5.874219|   -8.341319|    0.824013|    0.011995|
|         249|   -5.884485|   -8.344490|    0.824014|    0.011995|
|         250|   -5.893767|   -8.347333|    0.824014|    0.011995|
|         251|   -5.902027|   -8.349779|    0.824014|    0.011996|
|         252|   -5.909228|   -8.351780|    0.824014|    0.011996|
|         253|   -5.915343|   -8.353313|    0.824014|    0.011996|
|         254|   -5.920370|   -8.354376|    0.824015|    0.011996|
|         255|   -5.924338|   -8.354997|    0.824015|    0.011996|
|         256|   -5.927313|   -8.355219|    0.824015|    0.011996|
|         257|   -5.929392|   -8.355109|    0.824015|    0.011996|
|         258|   -5.930699|   -8.354746|    0.824015|    0.011996|
|         259|   -5.931369|   -8.354222|    0.824015|    0.011997|
|         260|   -5.931537|   -8.353632|    0.824015|    0.011997|
|         261|   -5.931333|   -8.353069|    0.824015|    0.011997|
|         262|   -5.930870|   -8.352622|    0.824015|    0.011997|
|         263|   -5.930247|   -8.352369|    0.824014|    0.011997|
|         264|   -5.929547|   -8.352372|    0.824014|    0.011997|
|         265|   -5.928838|   -8.352677|    0.824014|    0.011997|
|         266|   -5.928176|   -8.353311|    0.824014|    0.011997|
|         267|   -5.927611|   -8.354277|    0.824013|    0.011997|
|         268|   -5.927183|   -8.355559|    0.824013|    0.011997|
|         269|   -5.926928|   -8.357118|    0.824013|    0.011997|
|         270|   -5.926875|   -8.358890|    0.824013|    0.011997|
|         271|   -5.927048|   -8.360792|    0.824012|    0.011997|
|         272|   -5.927468|   -8.362724|    0.824012|    0.011997|
|         273|   -5.928152|   -8.364572|    0.824011|    0.011997|
|         274|   -5.929109|   -8.366215|    0.824011|    0.011997|
|         275|   -5.930350|   -8.367529|    0.824011|    0.011997|
|         276|   -5.931878|   -8.368397|    0.824010|    0.011997|
|         277|   -5.933696|   -8.368717|    0.824010|    0.011997|
|         278|   -5.935805|   -8.368410|    0.824010|    0.011997|
|         279|   -5.938202|   -8.367425|    0.824009|    0.011997|
|         280|   -5.940884|   -8.365747|    0.824009|    0.011997|
|         281|   -5.943844|   -8.363395|    0.824009|    0.011997|
|         282|   -5.947074|   -8.360424|    0.824008|    0.011997|
|         283|   -5.950564|   -8.356920|    0.824008|    0.011997|
|         284|   -5.954301|   -8.352993|    0.824008|    0.011997|
|         285|   -5.958271|   -8.348773|    0.824007|    0.011997|
|         286|   -5.962455|   -8.344397|    0.824007|    0.011997|
|         287|   -5.966834|   -8.340008|    0.824007|    0.011997|
|         288|   -5.971387|   -8.335743|    0.824007|    0.011997|
|         289|   -5.976090|   -8.331730|    0.824007|    0.011997|
|         290|   -5.980918|   -8.328084|    0.824007|    0.011997|
|         291|   -5.985845|   -8.324905|    0.824006|    0.011997|
|         292|   -5.990844|   -8.322277|    0.824006|    0.011997|
|         293|   -5.995889|   -8.320267|    0.824006|    0.011997|
|         294|   -6.000953|   -8.318923|    0.824006|    0.011997|
|         295|   -6.006011|   -8.318280|    0.824006|    0.011997|
|         296|   -6.011040|   -8.318355|    0.824006|    0.011997|
|         297|   -6.016019|   -8.319154|    0.824006|    0.011996|
|         298|   -6.020928|   -8.320666|    0.824006|    0.011996|
|         299|   -6.025753|   -8.322870|    0.824006|    0.011996|
|         300|   -6.030479|   -8.325736|    0.824006|    0.011996|
|         301|   -6.035096|   -8.329221|    0.824007|    0.011996|
+-----------------------------------------------------------------------+
|Fixed CL Mode                           |Value                         |
+-----------------------------------------------------------------------+
|Current CL                              |0.824007                      |
|Target CL                               |0.824                         |
|Previous AOA                            |2.7657                        |
|Changed AoA by                          |-3.23351e-05                  |
+-----------------------------------------------------------------------+
+----------------------------------------------------------------+
|  Inner_Iter|    rms[Rho]|     rms[nu]|          CL|          CD|
+----------------------------------------------------------------+
|         302|   -4.683158|   -8.306579|    0.824007|    0.011996|
|         303|   -5.064600|   -8.323699|    0.824007|    0.011995|
|         304|   -5.301030|   -8.332512|    0.824007|    0.011995|
|         305|   -5.375675|   -8.339974|    0.824007|    0.011995|
|         306|   -5.426648|   -8.347121|    0.824007|    0.011995|
|         307|   -5.492065|   -8.354156|    0.824007|    0.011995|
|         308|   -5.571111|   -8.361115|    0.824007|    0.011995|
|         309|   -5.651035|   -8.368006|    0.824008|    0.011995|
|         310|   -5.717462|   -8.374814|    0.824008|    0.011995|
|         311|   -5.764825|   -8.381506|    0.824008|    0.011995|
|         312|   -5.795878|   -8.388051|    0.824008|    0.011995|
|         313|   -5.814392|   -8.394443|    0.824008|    0.011994|
|         314|   -5.823563|   -8.400699|    0.824008|    0.011994|
|         315|   -5.827777|   -8.406832|    0.824009|    0.011994|
|         316|   -5.831954|   -8.412836|    0.824009|    0.011994|
|         317|   -5.839444|   -8.418700|    0.824009|    0.011994|
|         318|   -5.851022|   -8.424425|    0.824009|    0.011994|
|         319|   -5.865346|   -8.430027|    0.824009|    0.011994|
|         320|   -5.880205|   -8.435541|    0.824010|    0.011994|
|         321|   -5.893890|   -8.441004|    0.824010|    0.011994|
|         322|   -5.905953|   -8.446444|    0.824010|    0.011994|
|         323|   -5.916979|   -8.451885|    0.824010|    0.011994|
|         324|   -5.927774|   -8.457343|    0.824010|    0.011994|
|         325|   -5.938720|   -8.462832|    0.824011|    0.011994|
|         326|   -5.949629|   -8.468373|    0.824011|    0.011994|
|         327|   -5.959967|   -8.473989|    0.824011|    0.011993|
|         328|   -5.969163|   -8.479703|    0.824011|    0.011993|
|         329|   -5.976804|   -8.485541|    0.824011|    0.011993|
|         330|   -5.982709|   -8.491527|    0.824012|    0.011993|
|         331|   -5.986924|   -8.497677|    0.824012|    0.011993|
|         332|   -5.989712|   -8.504003|    0.824012|    0.011993|
|         333|   -5.991503|   -8.510506|    0.824012|    0.011993|
|         334|   -5.992812|   -8.517179|    0.824012|    0.011993|
|         335|   -5.994124|   -8.524001|    0.824013|    0.011993|
|         336|   -5.995794|   -8.530941|    0.824013|    0.011993|
|         337|   -5.997992|   -8.537959|    0.824013|    0.011993|
|         338|   -6.000697|   -8.545007|    0.824013|    0.011993|
|         339|   -6.003727|   -8.552032|    0.824013|    0.011993|
|         340|   -6.006791|   -8.558978|    0.824014|    0.011993|
|         341|   -6.009559|   -8.565786|    0.824014|    0.011993|
|         342|   -6.011744|   -8.572401|    0.824014|    0.011993|
|         343|   -6.013177|   -8.578768|    0.824014|    0.011993|
|         344|   -6.013846|   -8.584836|    0.824014|    0.011993|
|         345|   -6.013902|   -8.590560|    0.824015|    0.011993|
|         346|   -6.013610|   -8.595897|    0.824015|    0.011993|
|         347|   -6.013282|   -8.600810|    0.824015|    0.011993|
|         348|   -6.013198|   -8.605269|    0.824015|    0.011993|
|         349|   -6.013563|   -8.609246|    0.824015|    0.011993|
|         350|   -6.014478|   -8.612725|    0.824015|    0.011993|
|         351|   -6.015951|   -8.615696|    0.824015|    0.011994|
|         352|   -6.017918|   -8.618158|    0.824015|    0.011994|
|         353|   -6.020277|   -8.620122|    0.824015|    0.011994|
|         354|   -6.022922|   -8.621610|    0.824015|    0.011994|
|         355|   -6.025768|   -8.622656|    0.824015|    0.011994|
|         356|   -6.028770|   -8.623302|    0.824015|    0.011994|
|         357|   -6.031924|   -8.623610|    0.824015|    0.011994|
|         358|   -6.035259|   -8.623640|    0.824015|    0.011994|
|         359|   -6.038826|   -8.623464|    0.824015|    0.011994|
|         360|   -6.042686|   -8.623157|    0.824015|    0.011994|
|         361|   -6.046892|   -8.622798|    0.824015|    0.011994|
|         362|   -6.051485|   -8.622469|    0.824015|    0.011994|
|         363|   -6.056490|   -8.622249|    0.824015|    0.011994|
|         364|   -6.061914|   -8.622216|    0.824015|    0.011994|
|         365|   -6.067753|   -8.622443|    0.824015|    0.011994|
|         366|   -6.073992|   -8.622996|    0.824014|    0.011994|
|         367|   -6.080613|   -8.623932|    0.824014|    0.011994|
|         368|   -6.087592|   -8.625300|    0.824014|    0.011994|
|         369|   -6.094906|   -8.627137|    0.824014|    0.011994|
|         370|   -6.102529|   -8.629470|    0.824013|    0.011994|
|         371|   -6.110430|   -8.632310|    0.824013|    0.011994|
|         372|   -6.118574|   -8.635658|    0.824013|    0.011994|
|         373|   -6.126922|   -8.639497|    0.824013|    0.011995|
|         374|   -6.135425|   -8.643793|    0.824012|    0.011995|
|         375|   -6.144027|   -8.648496|    0.824012|    0.011995|
|         376|   -6.152667|   -8.653540|    0.824012|    0.011995|
|         377|   -6.161275|   -8.658838|    0.824011|    0.011995|
|         378|   -6.169777|   -8.664289|    0.824011|    0.011995|
|         379|   -6.178094|   -8.669774|    0.824011|    0.011995|
|         380|   -6.186148|   -8.675162|    0.824011|    0.011995|
|         381|   -6.193859|   -8.680311|    0.824010|    0.011995|
|         382|   -6.201151|   -8.685080|    0.824010|    0.011995|
|         383|   -6.207955|   -8.689329|    0.824010|    0.011995|
|         384|   -6.214206|   -8.692932|    0.824010|    0.011995|
|         385|   -6.219854|   -8.695783|    0.824009|    0.011995|
|         386|   -6.224860|   -8.697804|    0.824009|    0.011995|
|         387|   -6.229198|   -8.698954|    0.824009|    0.011995|
|         388|   -6.232857|   -8.699229|    0.824009|    0.011995|
|         389|   -6.235843|   -8.698662|    0.824009|    0.011995|
|         390|   -6.238174|   -8.697326|    0.824008|    0.011995|
|         391|   -6.239883|   -8.695323|    0.824008|    0.011995|
|         392|   -6.241012|   -8.692778|    0.824008|    0.011995|
|         393|   -6.241610|   -8.689834|    0.824008|    0.011995|
|         394|   -6.241735|   -8.686637|    0.824008|    0.011995|
|         395|   -6.241447|   -8.683337|    0.824008|    0.011995|
|         396|   -6.240804|   -8.680076|    0.824008|    0.011995|
|         397|   -6.239868|   -8.676982|    0.824008|    0.011995|
|         398|   -6.238693|   -8.674172|    0.824007|    0.011995|
|         399|   -6.237335|   -8.671743|    0.824007|    0.011995|
|         400|   -6.235840|   -8.669778|    0.824007|    0.011995|
|         401|   -6.234252|   -8.668340|    0.824007|    0.011994|
+-----------------------------------------------------------------------+
|Fixed CL Mode                           |Value                         |
+-----------------------------------------------------------------------+
|Current CL                              |0.824007                      |
|Target CL                               |0.824                         |
|Previous AOA                            |2.76566                       |
|Changed AoA by                          |-3.65362e-05                  |
+-----------------------------------------------------------------------+
+----------------------------------------------------------------+
|  Inner_Iter|    rms[Rho]|     rms[nu]|          CL|          CD|
+----------------------------------------------------------------+
|         402|   -4.630611|   -8.545888|    0.824007|    0.011994|
|         403|   -5.014538|   -8.599435|    0.824007|    0.011994|
|         404|   -5.256414|   -8.618489|    0.824007|    0.011994|
|         405|   -5.333362|   -8.630129|    0.824007|    0.011994|
|         406|   -5.385670|   -8.639168|    0.824007|    0.011994|
|         407|   -5.453640|   -8.646789|    0.824007|    0.011994|
|         408|   -5.537254|   -8.653453|    0.824007|    0.011994|
|         409|   -5.623726|   -8.659478|    0.824007|    0.011994|
|         410|   -5.697291|   -8.665061|    0.824007|    0.011994|
|         411|   -5.750588|   -8.670262|    0.824007|    0.011994|
|         412|   -5.785650|   -8.675117|    0.824007|    0.011994|
|         413|   -5.806255|   -8.679738|    0.824007|    0.011994|
|         414|   -5.815933|   -8.684303|    0.824007|    0.011994|
|         415|   -5.819910|   -8.688924|    0.824007|    0.011994|
|         416|   -5.824139|   -8.693555|    0.824007|    0.011994|
|         417|   -5.832662|   -8.698085|    0.824007|    0.011994|
|         418|   -5.846456|   -8.702394|    0.824007|    0.011994|
|         419|   -5.863963|   -8.706408|    0.824007|    0.011994|
|         420|   -5.882518|   -8.710097|    0.824007|    0.011994|
|         421|   -5.899980|   -8.713431|    0.824007|    0.011994|
|         422|   -5.915760|   -8.716352|    0.824007|    0.011994|
|         423|   -5.930624|   -8.718792|    0.824007|    0.011994|
|         424|   -5.945685|   -8.720660|    0.824007|    0.011994|
|         425|   -5.961519|   -8.721900|    0.824007|    0.011994|
|         426|   -5.977905|   -8.722488|    0.824007|    0.011994|
|         427|   -5.994076|   -8.722452|    0.824007|    0.011994|
|         428|   -6.009123|   -8.721858|    0.824007|    0.011994|
|         429|   -6.022311|   -8.720801|    0.824007|    0.011994|
|         430|   -6.033241|   -8.719391|    0.824007|    0.011994|
|         431|   -6.041907|   -8.717752|    0.824007|    0.011994|
|         432|   -6.048706|   -8.716001|    0.824007|    0.011994|
|         433|   -6.054368|   -8.714239|    0.824007|    0.011994|
|         434|   -6.059804|   -8.712551|    0.824007|    0.011994|
|         435|   -6.065897|   -8.710998|    0.824007|    0.011994|
|         436|   -6.073325|   -8.709624|    0.824007|    0.011994|
|         437|   -6.082453|   -8.708451|    0.824007|    0.011994|
|         438|   -6.093301|   -8.707489|    0.824007|    0.011994|
|         439|   -6.105548|   -8.706737|    0.824007|    0.011994|
|         440|   -6.118585|   -8.706185|    0.824007|    0.011994|
|         441|   -6.131601|   -8.705822|    0.824007|    0.011994|
|         442|   -6.143734|   -8.705634|    0.824007|    0.011994|
|         443|   -6.154266|   -8.705605|    0.824007|    0.011994|
|         444|   -6.162822|   -8.705716|    0.824007|    0.011994|
|         445|   -6.169464|   -8.705946|    0.824007|    0.011994|
|         446|   -6.174647|   -8.706271|    0.824007|    0.011994|
|         447|   -6.179047|   -8.706657|    0.824007|    0.011994|
|         448|   -6.183354|   -8.707065|    0.824007|    0.011994|
|         449|   -6.188093|   -8.707447|    0.824007|    0.011994|
|         450|   -6.193539|   -8.707751|    0.824007|    0.011994|
|         451|   -6.199704|   -8.707922|    0.824007|    0.011994|
|         452|   -6.206378|   -8.707903|    0.824007|    0.011994|
|         453|   -6.213214|   -8.707638|    0.824007|    0.011994|
|         454|   -6.219825|   -8.707081|    0.824007|    0.011994|
|         455|   -6.225871|   -8.706188|    0.824006|    0.011994|
|         456|   -6.231128|   -8.704946|    0.824006|    0.011994|
|         457|   -6.235518|   -8.703341|    0.824006|    0.011994|
|         458|   -6.239095|   -8.701380|    0.824006|    0.011994|
|         459|   -6.242009|   -8.699081|    0.824006|    0.011994|
|         460|   -6.244451|   -8.696488|    0.824006|    0.011994|
|         461|   -6.246608|   -8.693658|    0.824006|    0.011994|
|         462|   -6.248629|   -8.690663|    0.824006|    0.011994|
|         463|   -6.250618|   -8.687584|    0.824006|    0.011994|
|         464|   -6.252633|   -8.684511|    0.824005|    0.011994|
|         465|   -6.254701|   -8.681536|    0.824005|    0.011994|
|         466|   -6.256830|   -8.678751|    0.824005|    0.011994|
|         467|   -6.259024|   -8.676246|    0.824005|    0.011994|
|         468|   -6.261292|   -8.674104|    0.824005|    0.011994|
|         469|   -6.263649|   -8.672401|    0.824005|    0.011994|
|         470|   -6.266120|   -8.671201|    0.824004|    0.011994|
|         471|   -6.268731|   -8.670557|    0.824004|    0.011994|
|         472|   -6.271507|   -8.670508|    0.824004|    0.011994|
|         473|   -6.274473|   -8.671072|    0.824004|    0.011994|
|         474|   -6.277647|   -8.672255|    0.824004|    0.011994|
|         475|   -6.281042|   -8.674050|    0.824003|    0.011994|
|         476|   -6.284663|   -8.676423|    0.824003|    0.011994|
|         477|   -6.288515|   -8.679324|    0.824003|    0.011994|
|         478|   -6.292596|   -8.682684|    0.824003|    0.011994|
|         479|   -6.296904|   -8.686418|    0.824003|    0.011994|
|         480|   -6.301435|   -8.690421|    0.824003|    0.011994|
|         481|   -6.306183|   -8.694577|    0.824002|    0.011994|
|         482|   -6.311142|   -8.698758|    0.824002|    0.011994|
|         483|   -6.316302|   -8.702828|    0.824002|    0.011994|
|         484|   -6.321654|   -8.706656|    0.824002|    0.011994|
|         485|   -6.327185|   -8.710114|    0.824002|    0.011994|
|         486|   -6.332880|   -8.713093|    0.824002|    0.011994|
|         487|   -6.338723|   -8.715504|    0.824002|    0.011994|
|         488|   -6.344694|   -8.717287|    0.824002|    0.011994|
|         489|   -6.350773|   -8.718417|    0.824002|    0.011994|
|         490|   -6.356937|   -8.718904|    0.824002|    0.011994|
|         491|   -6.363158|   -8.718790|    0.824002|    0.011994|
|         492|   -6.369411|   -8.718151|    0.824002|    0.011994|
|         493|   -6.375662|   -8.717086|    0.824002|    0.011994|
|         494|   -6.381881|   -8.715715|    0.824002|    0.011994|
|         495|   -6.388030|   -8.714164|    0.824002|    0.011994|
|         496|   -6.394072|   -8.712567|    0.824002|    0.011994|
|         497|   -6.399966|   -8.711052|    0.824002|    0.011994|
|         498|   -6.405673|   -8.709739|    0.824002|    0.011994|
|         499|   -6.411148|   -8.708737|    0.824002|    0.011994|
|         500|   -6.416350|   -8.708137|    0.824002|    0.011994|
|         501|   -6.421237|   -8.708016|    0.824002|    0.011994|
+-----------------------------------------------------------------------+
|Fixed CL Mode                           |Value                         |
+-----------------------------------------------------------------------+
|Current CL                              |0.824002                      |
|Target CL                               |0.824                         |
|Previous AOA                            |2.76563                       |
|Changed AoA by                          |-1.05616e-05                  |
+-----------------------------------------------------------------------+
+----------------------------------------------------------------+
|  Inner_Iter|    rms[Rho]|     rms[nu]|          CL|          CD|
+----------------------------------------------------------------+
|         502|   -5.169302|   -8.693042|    0.824002|    0.011994|
|         503|   -5.551459|   -8.701885|    0.824002|    0.011994|
|         504|   -5.787805|   -8.705776|    0.824002|    0.011994|
|         505|   -5.859932|   -8.709210|    0.824003|    0.011994|
|         506|   -5.907728|   -8.712860|    0.824003|    0.011994|
|         507|   -5.969280|   -8.716852|    0.824003|    0.011994|
|         508|   -6.043127|   -8.721195|    0.824003|    0.011994|
|         509|   -6.116352|   -8.725871|    0.824003|    0.011994|
|         510|   -6.175586|   -8.730846|    0.824003|    0.011994|
|         511|   -6.216678|   -8.736062|    0.824003|    0.011994|
|         512|   -6.243020|   -8.741459|    0.824003|    0.011994|
|         513|   -6.258439|   -8.746980|    0.824003|    0.011994|
|         514|   -6.265860|   -8.752576|    0.824003|    0.011994|
|         515|   -6.268927|   -8.758191|    0.824003|    0.011994|
|         516|   -6.271629|   -8.763756|    0.824003|    0.011994|
|         517|   -6.276650|   -8.769196|    0.824003|    0.011994|
|         518|   -6.284576|   -8.774446|    0.824004|    0.011994|
|         519|   -6.294315|   -8.779453|    0.824004|    0.011994|
|         520|   -6.304190|   -8.784178|    0.824004|    0.011994|
|         521|   -6.313036|   -8.788593|    0.824004|    0.011994|
|         522|   -6.320677|   -8.792672|    0.824004|    0.011993|
|         523|   -6.327636|   -8.796396|    0.824004|    0.011993|
|         524|   -6.334507|   -8.799755|    0.824004|    0.011993|
|         525|   -6.341508|   -8.802750|    0.824004|    0.011993|
|         526|   -6.348436|   -8.805388|    0.824004|    0.011993|
|         527|   -6.354869|   -8.807691|    0.824004|    0.011993|
|         528|   -6.360413|   -8.809687|    0.824004|    0.011993|
|         529|   -6.364840|   -8.811409|    0.824004|    0.011993|
|         530|   -6.368124|   -8.812896|    0.824004|    0.011993|
|         531|   -6.370421|   -8.814185|    0.824004|    0.011993|
|         532|   -6.372032|   -8.815312|    0.824003|    0.011993|
|         533|   -6.373349|   -8.816308|    0.824003|    0.011993|
|         534|   -6.374789|   -8.817197|    0.824003|    0.011993|
|         535|   -6.376714|   -8.818002|    0.824003|    0.011993|
|         536|   -6.379374|   -8.818735|    0.824003|    0.011993|
|         537|   -6.382876|   -8.819408|    0.824003|    0.011993|
|         538|   -6.387184|   -8.820028|    0.824003|    0.011993|
|         539|   -6.392144|   -8.820603|    0.824003|    0.011993|
|         540|   -6.397521|   -8.821141|    0.824003|    0.011993|
|         541|   -6.403048|   -8.821653|    0.824003|    0.011993|
|         542|   -6.408480|   -8.822152|    0.824003|    0.011993|
|         543|   -6.413642|   -8.822658|    0.824003|    0.011993|
|         544|   -6.418465|   -8.823192|    0.824003|    0.011993|
|         545|   -6.422992|   -8.823779|    0.824002|    0.011993|
|         546|   -6.427359|   -8.824445|    0.824002|    0.011993|
|         547|   -6.431743|   -8.825219|    0.824002|    0.011993|
|         548|   -6.436317|   -8.826127|    0.824002|    0.011993|
|         549|   -6.441205|   -8.827193|    0.824002|    0.011993|
|         550|   -6.446460|   -8.828435|    0.824002|    0.011993|
|         551|   -6.452056|   -8.829866|    0.824002|    0.011993|
|         552|   -6.457905|   -8.831492|    0.824002|    0.011993|
|         553|   -6.463881|   -8.833308|    0.824002|    0.011993|
|         554|   -6.469842|   -8.835302|    0.824002|    0.011993|
|         555|   -6.475660|   -8.837448|    0.824002|    0.011993|
|         556|   -6.481234|   -8.839711|    0.824002|    0.011993|
|         557|   -6.486501|   -8.842046|    0.824002|    0.011993|
|         558|   -6.491429|   -8.844397|    0.824001|    0.011993|
|         559|   -6.496014|   -8.846703|    0.824001|    0.011993|
|         560|   -6.500262|   -8.848894|    0.824001|    0.011993|
|         561|   -6.504181|   -8.850901|    0.824001|    0.011994|
|         562|   -6.507776|   -8.852653|    0.824001|    0.011994|
|         563|   -6.511040|   -8.854088|    0.824001|    0.011994|
|         564|   -6.513961|   -8.855150|    0.824001|    0.011994|
|         565|   -6.516522|   -8.855799|    0.824001|    0.011994|
|         566|   -6.518709|   -8.856010|    0.824001|    0.011994|
|         567|   -6.520510|   -8.855775|    0.824001|    0.011994|
|         568|   -6.521923|   -8.855109|    0.824001|    0.011994|
|         569|   -6.522954|   -8.854043|    0.824001|    0.011994|
|         570|   -6.523618|   -8.852627|    0.824001|    0.011994|
|         571|   -6.523938|   -8.850923|    0.824001|    0.011994|
|         572|   -6.523941|   -8.849005|    0.824000|    0.011994|
|         573|   -6.523658|   -8.846955|    0.824000|    0.011994|
|         574|   -6.523124|   -8.844854|    0.824000|    0.011994|
|         575|   -6.522375|   -8.842784|    0.824000|    0.011994|
|         576|   -6.521448|   -8.840821|    0.824000|    0.011994|
|         577|   -6.520382|   -8.839032|    0.824000|    0.011994|
|         578|   -6.519215|   -8.837476|    0.824000|    0.011994|
|         579|   -6.517988|   -8.836200|    0.824000|    0.011994|
|         580|   -6.516737|   -8.835236|    0.824000|    0.011994|
|         581|   -6.515503|   -8.834605|    0.824000|    0.011994|
|         582|   -6.514321|   -8.834314|    0.824000|    0.011995|
|         583|   -6.513227|   -8.834358|    0.824000|    0.011995|
|         584|   -6.512256|   -8.834719|    0.823999|    0.011995|
|         585|   -6.511439|   -8.835369|    0.823999|    0.011995|
|         586|   -6.510805|   -8.836271|    0.823999|    0.011995|
|         587|   -6.510382|   -8.837379|    0.823999|    0.011995|
|         588|   -6.510194|   -8.838641|    0.823999|    0.011995|
|         589|   -6.510264|   -8.840004|    0.823999|    0.011995|
|         590|   -6.510612|   -8.841410|    0.823999|    0.011995|
|         591|   -6.511255|   -8.842807|    0.823999|    0.011995|
|         592|   -6.512208|   -8.844142|    0.823999|    0.011995|
|         593|   -6.513484|   -8.845371|    0.823999|    0.011995|
|         594|   -6.515091|   -8.846457|    0.823999|    0.011995|
|         595|   -6.517038|   -8.847371|    0.823999|    0.011995|
|         596|   -6.519329|   -8.848093|    0.823999|    0.011995|
|         597|   -6.521965|   -8.848615|    0.823999|    0.011995|
|         598|   -6.524946|   -8.848938|    0.823999|    0.011995|
|         599|   -6.528267|   -8.849068|    0.823999|    0.011995|
|         600|   -6.531922|   -8.849023|    0.823999|    0.011995|
|         601|   -6.535900|   -8.848822|    0.823999|    0.011995|
+-----------------------------------------------------------------------+
|Fixed CL Mode                           |Value                         |
+-----------------------------------------------------------------------+
|Current CL                              |0.823999                      |
|Target CL                               |0.824                         |
|Previous AOA                            |2.76562                       |
|Changed AoA by                          |6.48759e-06                   |
+-----------------------------------------------------------------------+
+----------------------------------------------------------------+
|  Inner_Iter|    rms[Rho]|     rms[nu]|          CL|          CD|
+----------------------------------------------------------------+
|         602|   -5.380081|   -8.836717|    0.823999|    0.011995|
|         603|   -5.759834|   -8.842164|    0.823999|    0.011995|
|         604|   -5.994139|   -8.843424|    0.823999|    0.011995|
|         605|   -6.068087|   -8.843783|    0.823999|    0.011995|
|         606|   -6.117285|   -8.843779|    0.823999|    0.011995|
|         607|   -6.178618|   -8.843575|    0.823999|    0.011995|
|         608|   -6.250236|   -8.843254|    0.823999|    0.011995|
|         609|   -6.318930|   -8.842873|    0.823999|    0.011995|
|         610|   -6.372009|   -8.842468|    0.823999|    0.011995|
|         611|   -6.406931|   -8.842057|    0.823999|    0.011995|
|         612|   -6.428399|   -8.841647|    0.823999|    0.011995|
|         613|   -6.440894|   -8.841254|    0.823999|    0.011995|
|         614|   -6.447474|   -8.840892|    0.823999|    0.011995|
|         615|   -6.451381|   -8.840574|    0.823999|    0.011995|
|         616|   -6.455932|   -8.840304|    0.823998|    0.011995|
|         617|   -6.463268|   -8.840083|    0.823998|    0.011995|
|         618|   -6.473676|   -8.839917|    0.823998|    0.011995|
|         619|   -6.485918|   -8.839815|    0.823998|    0.011995|
|         620|   -6.498180|   -8.839790|    0.823998|    0.011995|
|         621|   -6.509102|   -8.839858|    0.823998|    0.011995|
|         622|   -6.518315|   -8.840033|    0.823998|    0.011995|
|         623|   -6.526247|   -8.840327|    0.823998|    0.011994|
|         624|   -6.533526|   -8.840754|    0.823998|    0.011994|
|         625|   -6.540514|   -8.841323|    0.823998|    0.011994|
|         626|   -6.547201|   -8.842046|    0.823998|    0.011994|
|         627|   -6.553353|   -8.842932|    0.823998|    0.011994|
|         628|   -6.558695|   -8.843989|    0.823998|    0.011994|
|         629|   -6.563031|   -8.845220|    0.823998|    0.011994|
|         630|   -6.566276|   -8.846627|    0.823998|    0.011994|
|         631|   -6.568461|   -8.848205|    0.823998|    0.011994|
|         632|   -6.569733|   -8.849947|    0.823998|    0.011994|
|         633|   -6.570350|   -8.851841|    0.823998|    0.011994|
|         634|   -6.570629|   -8.853873|    0.823998|    0.011994|
|         635|   -6.570894|   -8.856025|    0.823998|    0.011994|
|         636|   -6.571404|   -8.858277|    0.823998|    0.011994|
|         637|   -6.572321|   -8.860608|    0.823998|    0.011994|
|         638|   -6.573696|   -8.862997|    0.823998|    0.011994|
|         639|   -6.575480|   -8.865424|    0.823998|    0.011994|
|         640|   -6.577557|   -8.867872|    0.823998|    0.011994|
|         641|   -6.579775|   -8.870325|    0.823998|    0.011994|
|         642|   -6.581991|   -8.872773|    0.823998|    0.011994|
|         643|   -6.584113|   -8.875209|    0.823998|    0.011994|
|         644|   -6.586122|   -8.877632|    0.823998|    0.011994|
|         645|   -6.588081|   -8.880043|    0.823998|    0.011994|
|         646|   -6.590114|   -8.882449|    0.823998|    0.011994|
|         647|   -6.592375|   -8.884861|    0.823998|    0.011994|
|         648|   -6.595012|   -8.887295|    0.823998|    0.011994|
|         649|   -6.598134|   -8.889768|    0.823998|    0.011994|
|         650|   -6.601798|   -8.892302|    0.823998|    0.011994|
|         651|   -6.606006|   -8.894918|    0.823998|    0.011994|
|         652|   -6.610720|   -8.897640|    0.823999|    0.011994|
|         653|   -6.615870|   -8.900491|    0.823999|    0.011994|
|         654|   -6.621382|   -8.903495|    0.823999|    0.011994|
|         655|   -6.627191|   -8.906672|    0.823999|    0.011994|
|         656|   -6.633248|   -8.910042|    0.823999|    0.011994|
|         657|   -6.639530|   -8.913622|    0.823999|    0.011994|
|         658|   -6.646034|   -8.917425|    0.823999|    0.011994|
|         659|   -6.652768|   -8.921462|    0.823999|    0.011994|
|         660|   -6.659747|   -8.925737|    0.823999|    0.011994|
|         661|   -6.666984|   -8.930251|    0.823999|    0.011994|
|         662|   -6.674480|   -8.935000|    0.823999|    0.011994|
|         663|   -6.682225|   -8.939974|    0.823999|    0.011994|
|         664|   -6.690196|   -8.945159|    0.824000|    0.011994|
|         665|   -6.698359|   -8.950536|    0.824000|    0.011994|
|         666|   -6.706671|   -8.956081|    0.824000|    0.011994|
|         667|   -6.715082|   -8.961765|    0.824000|    0.011994|
|         668|   -6.723538|   -8.967556|    0.824000|    0.011994|
|         669|   -6.731983|   -8.973419|    0.824000|    0.011994|
|         670|   -6.740357|   -8.979316|    0.824000|    0.011994|
|         671|   -6.748600|   -8.985210|    0.824000|    0.011994|
|         672|   -6.756647|   -8.991062|    0.824000|    0.011994|
|         673|   -6.764433|   -8.996834|    0.824000|    0.011994|
|         674|   -6.771892|   -9.002493|    0.824001|    0.011994|
|         675|   -6.778958|   -9.008008|    0.824001|    0.011994|
|         676|   -6.785567|   -9.013354|    0.824001|    0.011994|
|         677|   -6.791660|   -9.018512|    0.824001|    0.011994|
|         678|   -6.797187|   -9.023470|    0.824001|    0.011994|
|         679|   -6.802105|   -9.028225|    0.824001|    0.011994|
|         680|   -6.806386|   -9.032780|    0.824001|    0.011994|
|         681|   -6.810013|   -9.037147|    0.824001|    0.011994|
|         682|   -6.812985|   -9.041344|    0.824001|    0.011994|
|         683|   -6.815315|   -9.045398|    0.824001|    0.011994|
|         684|   -6.817029|   -9.049337|    0.824001|    0.011994|
|         685|   -6.818168|   -9.053197|    0.824001|    0.011994|
|         686|   -6.818783|   -9.057014|    0.824001|    0.011994|
|         687|   -6.818933|   -9.060827|    0.824001|    0.011994|
|         688|   -6.818687|   -9.064672|    0.824001|    0.011995|
|         689|   -6.818115|   -9.068588|    0.824001|    0.011995|
|         690|   -6.817294|   -9.072605|    0.824001|    0.011995|
|         691|   -6.816298|   -9.076754|    0.824001|    0.011995|
|         692|   -6.815201|   -9.081061|    0.824001|    0.011995|
|         693|   -6.814074|   -9.085543|    0.824001|    0.011995|
|         694|   -6.812986|   -9.090216|    0.824001|    0.011995|
|         695|   -6.812000|   -9.095088|    0.824001|    0.011995|
|         696|   -6.811173|   -9.100160|    0.824001|    0.011995|
|         697|   -6.810558|   -9.105430|    0.824001|    0.011995|
|         698|   -6.810202|   -9.110888|    0.824001|    0.011995|
|         699|   -6.810148|   -9.116520|    0.824001|    0.011995|
|         700|   -6.810430|   -9.122306|    0.824001|    0.011995|
|         701|   -6.811082|   -9.128225|    0.824001|    0.011995|
+-----------------------------------------------------------------------+
|Fixed CL Mode                           |Value                         |
+-----------------------------------------------------------------------+
|Current CL                              |0.824001                      |
|Target CL                               |0.824                         |
|Previous AOA                            |2.76562                       |
|Changed AoA by                          |-2.87032e-06                  |
+-----------------------------------------------------------------------+
+----------------------------------------------------------------+
|  Inner_Iter|    rms[Rho]|     rms[nu]|          CL|          CD|
+----------------------------------------------------------------+
|         702|   -5.734330|   -9.126569|    0.824000|    0.011995|
|         703|   -6.115210|   -9.136562|    0.824000|    0.011995|
|         704|   -6.351583|   -9.143643|    0.824000|    0.011995|
|         705|   -6.424309|   -9.150243|    0.824000|    0.011995|
|         706|   -6.469901|   -9.156718|    0.824000|    0.011995|
|         707|   -6.525690|   -9.163100|    0.824000|    0.011995|
|         708|   -6.589208|   -9.169347|    0.824000|    0.011995|
|         709|   -6.647418|   -9.175406|    0.824000|    0.011995|
|         710|   -6.689668|   -9.181230|    0.824000|    0.011995|
|         711|   -6.715665|   -9.186783|    0.824000|    0.011995|
|         712|   -6.730833|   -9.192049|    0.824000|    0.011995|
|         713|   -6.739537|   -9.197030|    0.824000|    0.011995|
|         714|   -6.744493|   -9.201744|    0.824000|    0.011995|
|         715|   -6.748271|   -9.206211|    0.824000|    0.011995|
|         716|   -6.753343|   -9.210442|    0.823999|    0.011995|
|         717|   -6.761221|   -9.214441|    0.823999|    0.011995|
|         718|   -6.771975|   -9.218214|    0.823999|    0.011995|
|         719|   -6.784481|   -9.221766|    0.823999|    0.011995|
|         720|   -6.797189|   -9.225105|    0.823999|    0.011995|
|         721|   -6.808946|   -9.228236|    0.823999|    0.011995|
|         722|   -6.819427|   -9.231162|    0.823999|    0.011995|
|         723|   -6.828994|   -9.233883|    0.823999|    0.011995|
|         724|   -6.838222|   -9.236399|    0.823999|    0.011995|
|         725|   -6.847501|   -9.238713|    0.823999|    0.011995|
|         726|   -6.856916|   -9.240827|    0.823999|    0.011995|
|         727|   -6.866321|   -9.242749|    0.823999|    0.011995|
|         728|   -6.875473|   -9.244486|    0.823999|    0.011995|
|         729|   -6.884119|   -9.246049|    0.823999|    0.011995|
|         730|   -6.892045|   -9.247452|    0.823999|    0.011995|
|         731|   -6.899103|   -9.248711|    0.823999|    0.011995|
|         732|   -6.905252|   -9.249844|    0.823999|    0.011995|
|         733|   -6.910578|   -9.250874|    0.823999|    0.011995|
|         734|   -6.915281|   -9.251826|    0.823999|    0.011995|
|         735|   -6.919615|   -9.252724|    0.823999|    0.011995|
|         736|   -6.923822|   -9.253599|    0.823999|    0.011995|
|         737|   -6.928070|   -9.254476|    0.823999|    0.011995|
|         738|   -6.932426|   -9.255387|    0.823999|    0.011994|
|         739|   -6.936845|   -9.256357|    0.823999|    0.011994|
|         740|   -6.941197|   -9.257415|    0.823999|    0.011994|
|         741|   -6.945300|   -9.258586|    0.823999|    0.011994|
|         742|   -6.948970|   -9.259894|    0.823999|    0.011994|
|         743|   -6.952078|   -9.261361|    0.823998|    0.011994|
|         744|   -6.954579|   -9.263008|    0.823998|    0.011994|
|         745|   -6.956531|   -9.264852|    0.823998|    0.011994|
|         746|   -6.958075|   -9.266908|    0.823998|    0.011994|
|         747|   -6.959397|   -9.269190|    0.823998|    0.011994|
|         748|   -6.960682|   -9.271708|    0.823998|    0.011994|
|         749|   -6.962075|   -9.274472|    0.823998|    0.011994|
|         750|   -6.963663|   -9.277486|    0.823999|    0.011994|
|         751|   -6.965474|   -9.280755|    0.823999|    0.011994|
|         752|   -6.967482|   -9.284282|    0.823999|    0.011994|
|         753|   -6.969635|   -9.288067|    0.823999|    0.011994|
|         754|   -6.971870|   -9.292111|    0.823999|    0.011994|
|         755|   -6.974133|   -9.296413|    0.823999|    0.011994|
|         756|   -6.976391|   -9.300971|    0.823999|    0.011994|
|         757|   -6.978633|   -9.305784|    0.823999|    0.011994|
|         758|   -6.980866|   -9.310850|    0.823999|    0.011994|
|         759|   -6.983111|   -9.316166|    0.823999|    0.011994|
|         760|   -6.985392|   -9.321731|    0.823999|    0.011994|
|         761|   -6.987727|   -9.327542|    0.823999|    0.011994|
|         762|   -6.990127|   -9.333595|    0.823999|    0.011994|
|         763|   -6.992590|   -9.339889|    0.823999|    0.011994|
|         764|   -6.995104|   -9.346420|    0.823999|    0.011994|
|         765|   -6.997650|   -9.353181|    0.823999|    0.011994|
|         766|   -7.000202|   -9.360166|    0.823999|    0.011994|
|         767|   -7.002732|   -9.367367|    0.823999|    0.011994|
|         768|   -7.005212|   -9.374774|    0.823999|    0.011994|
|         769|   -7.007613|   -9.382375|    0.823999|    0.011994|
|         770|   -7.009907|   -9.390154|    0.823999|    0.011994|
|         771|   -7.012068|   -9.398092|    0.823999|    0.011994|
|         772|   -7.014071|   -9.406167|    0.823999|    0.011994|
|         773|   -7.015891|   -9.414352|    0.823999|    0.011994|
|         774|   -7.017504|   -9.422619|    0.823999|    0.011994|
|         775|   -7.018890|   -9.430935|    0.823999|    0.011994|
|         776|   -7.020029|   -9.439264|    0.823999|    0.011994|
|         777|   -7.020907|   -9.447571|    0.823999|    0.011994|
|         778|   -7.021513|   -9.455818|    0.823999|    0.011994|
|         779|   -7.021840|   -9.463966|    0.823999|    0.011994|
|         780|   -7.021886|   -9.471980|    0.823999|    0.011994|
|         781|   -7.021655|   -9.479825|    0.823999|    0.011994|
|         782|   -7.021155|   -9.487470|    0.823999|    0.011994|
|         783|   -7.020398|   -9.494886|    0.823999|    0.011994|
|         784|   -7.019401|   -9.502050|    0.823999|    0.011994|
|         785|   -7.018187|   -9.508942|    0.823999|    0.011994|
|         786|   -7.016778|   -9.515544|    0.823999|    0.011994|
|         787|   -7.015203|   -9.521844|    0.823999|    0.011994|
|         788|   -7.013491|   -9.527830|    0.823999|    0.011994|
|         789|   -7.011674|   -9.533492|    0.823999|    0.011994|
|         790|   -7.009785|   -9.538821|    0.823999|    0.011994|
|         791|   -7.007858|   -9.543807|    0.823999|    0.011994|
|         792|   -7.005925|   -9.548442|    0.823999|    0.011994|
|         793|   -7.004019|   -9.552715|    0.823999|    0.011994|
|         794|   -7.002172|   -9.556614|    0.823999|    0.011994|
|         795|   -7.000413|   -9.560130|    0.823999|    0.011994|
|         796|   -6.998770|   -9.563252|    0.823999|    0.011994|
|         797|   -6.997269|   -9.565974|    0.823999|    0.011994|
|         798|   -6.995932|   -9.568290|    0.823999|    0.011994|
|         799|   -6.994778|   -9.570201|    0.823999|    0.011994|
|         800|   -6.993823|   -9.571715|    0.823999|    0.011994|
|         801|   -6.993081|   -9.572845|    0.823999|    0.011994|
+-----------------------------------------------------------------------+
|Fixed CL Mode                           |Value                         |
+-----------------------------------------------------------------------+
|Current CL                              |0.823999                      |
|Target CL                               |0.824                         |
|Previous AOA                            |2.76562                       |
|Changed AoA by                          |4.05462e-06                   |
+-----------------------------------------------------------------------+
+----------------------------------------------------------------+
|  Inner_Iter|    rms[Rho]|     rms[nu]|          CL|          CD|
+----------------------------------------------------------------+
|         802|   -5.585057|   -9.469920|    0.823999|    0.011994|
|         803|   -5.967435|   -9.516535|    0.823999|    0.011995|
|         804|   -6.205795|   -9.532560|    0.823999|    0.011995|
|         805|   -6.280981|   -9.541446|    0.823999|    0.011995|
|         806|   -6.332032|   -9.547351|    0.823999|    0.011995|
|         807|   -6.397824|   -9.551441|    0.823999|    0.011995|
|         808|   -6.477671|   -9.554287|    0.823999|    0.011995|
|         809|   -6.558648|   -9.556333|    0.823999|    0.011995|
|         810|   -6.625919|   -9.557877|    0.823999|    0.011995|
|         811|   -6.673574|   -9.559067|    0.823999|    0.011995|
|         812|   -6.704442|   -9.560002|    0.823999|    0.011995|
|         813|   -6.722532|   -9.560831|    0.823999|    0.011995|
|         814|   -6.731243|   -9.561728|    0.823999|    0.011995|
|         815|   -6.735096|   -9.562808|    0.823999|    0.011995|
|         816|   -6.739082|   -9.564103|    0.823999|    0.011995|
|         817|   -6.746554|   -9.565600|    0.823999|    0.011995|
|         818|   -6.758246|   -9.567295|    0.823999|    0.011995|
|         819|   -6.772736|   -9.569224|    0.823999|    0.011995|
|         820|   -6.787718|   -9.571446|    0.823999|    0.011995|
|         821|   -6.801406|   -9.573999|    0.823999|    0.011995|
|         822|   -6.813317|   -9.576896|    0.823999|    0.011995|
|         823|   -6.824046|   -9.580109|    0.823999|    0.011995|
|         824|   -6.834426|   -9.583592|    0.823999|    0.011995|
|         825|   -6.844859|   -9.587284|    0.823999|    0.011995|
|         826|   -6.855169|   -9.591124|    0.823999|    0.011995|
|         827|   -6.864827|   -9.595056|    0.823999|    0.011995|
|         828|   -6.873270|   -9.599028|    0.823999|    0.011995|
|         829|   -6.880100|   -9.602986|    0.823999|    0.011995|
|         830|   -6.885151|   -9.606876|    0.823999|    0.011995|
|         831|   -6.888493|   -9.610636|    0.823999|    0.011995|
|         832|   -6.890408|   -9.614202|    0.823999|    0.011995|
|         833|   -6.891349|   -9.617502|    0.823999|    0.011995|
|         834|   -6.891847|   -9.620456|    0.823999|    0.011995|
|         835|   -6.892400|   -9.622976|    0.823999|    0.011995|
|         836|   -6.893373|   -9.624972|    0.823999|    0.011995|
|         837|   -6.894945|   -9.626351|    0.823999|    0.011995|
|         838|   -6.897103|   -9.627026|    0.823999|    0.011995|
|         839|   -6.899672|   -9.626922|    0.823999|    0.011995|
|         840|   -6.902369|   -9.625982|    0.823999|    0.011995|
|         841|   -6.904870|   -9.624167|    0.823999|    0.011995|
|         842|   -6.906890|   -9.621465|    0.823999|    0.011995|
|         843|   -6.908251|   -9.617892|    0.823999|    0.011995|
|         844|   -6.908933|   -9.613485|    0.823998|    0.011995|
|         845|   -6.909069|   -9.608307|    0.823998|    0.011995|
|         846|   -6.908905|   -9.602438|    0.823998|    0.011995|
|         847|   -6.908734|   -9.595974|    0.823998|    0.011995|
|         848|   -6.908823|   -9.589020|    0.823998|    0.011995|
|         849|   -6.909366|   -9.581687|    0.823998|    0.011995|
|         850|   -6.910457|   -9.574092|    0.823998|    0.011995|
|         851|   -6.912099|   -9.566344|    0.823998|    0.011995|
|         852|   -6.914224|   -9.558562|    0.823998|    0.011995|
|         853|   -6.916724|   -9.550863|    0.823998|    0.011995|
|         854|   -6.919485|   -9.543344|    0.823998|    0.011995|
|         855|   -6.922413|   -9.536108|    0.823998|    0.011995|
|         856|   -6.925449|   -9.529249|    0.823998|    0.011995|
|         857|   -6.928572|   -9.522855|    0.823998|    0.011994|
|         858|   -6.931793|   -9.517008|    0.823998|    0.011994|
|         859|   -6.935143|   -9.511782|    0.823998|    0.011994|
|         860|   -6.938661|   -9.507242|    0.823999|    0.011994|
|         861|   -6.942377|   -9.503450|    0.823999|    0.011994|
|         862|   -6.946309|   -9.500456|    0.823999|    0.011994|
|         863|   -6.950456|   -9.498306|    0.823999|    0.011994|
|         864|   -6.954802|   -9.497038|    0.823999|    0.011994|
|         865|   -6.959315|   -9.496679|    0.823999|    0.011994|
|         866|   -6.963957|   -9.497250|    0.823999|    0.011994|
|         867|   -6.968683|   -9.498762|    0.823999|    0.011994|
|         868|   -6.973446|   -9.501217|    0.823999|    0.011994|
|         869|   -6.978199|   -9.504602|    0.823999|    0.011994|
|         870|   -6.982896|   -9.508893|    0.823999|    0.011994|
|         871|   -6.987490|   -9.514053|    0.823999|    0.011994|
|         872|   -6.991933|   -9.520026|    0.823999|    0.011994|
|         873|   -6.996179|   -9.526740|    0.823999|    0.011994|
|         874|   -7.000180|   -9.534103|    0.823999|    0.011994|
|         875|   -7.003888|   -9.542003|    0.823999|    0.011994|
|         876|   -7.007259|   -9.550308|    0.823999|    0.011994|
|         877|   -7.010252|   -9.558864|    0.823999|    0.011994|
|         878|   -7.012833|   -9.567503|    0.823999|    0.011994|
|         879|   -7.014972|   -9.576039|    0.823999|    0.011994|
|         880|   -7.016652|   -9.584285|    0.823999|    0.011994|
|         881|   -7.017860|   -9.592052|    0.823999|    0.011994|
|         882|   -7.018596|   -9.599164|    0.823999|    0.011994|
|         883|   -7.018868|   -9.605471|    0.824000|    0.011994|
|         884|   -7.018694|   -9.610857|    0.824000|    0.011994|
|         885|   -7.018101|   -9.615248|    0.824000|    0.011994|
|         886|   -7.017122|   -9.618622|    0.824000|    0.011994|
|         887|   -7.015795|   -9.621009|    0.824000|    0.011994|
|         888|   -7.014167|   -9.622481|    0.824000|    0.011994|
|         889|   -7.012284|   -9.623155|    0.824000|    0.011994|
|         890|   -7.010196|   -9.623172|    0.824000|    0.011994|
|         891|   -7.007954|   -9.622695|    0.824000|    0.011994|
|         892|   -7.005607|   -9.621887|    0.824000|    0.011994|
|         893|   -7.003204|   -9.620913|    0.824000|    0.011994|
|         894|   -7.000791|   -9.619920|    0.824000|    0.011994|
|         895|   -6.998410|   -9.619040|    0.824000|    0.011994|
|         896|   -6.996102|   -9.618383|    0.824000|    0.011994|
|         897|   -6.993903|   -9.618035|    0.824000|    0.011994|
|         898|   -6.991845|   -9.618058|    0.824000|    0.011994|
|         899|   -6.989956|   -9.618492|    0.824000|    0.011994|
|         900|   -6.988263|   -9.619353|    0.824000|    0.011994|
|         901|   -6.986788|   -9.620639|    0.824000|    0.011994|
|         902|   -6.985549|   -9.622327|    0.824000|    0.011994|
|         903|   -6.984563|   -9.624379|    0.824000|    0.011994|
|         904|   -6.983844|   -9.626746|    0.824000|    0.011994|
|         905|   -6.983401|   -9.629364|    0.824000|    0.011994|
|         906|   -6.983246|   -9.632162|    0.824000|    0.011994|
|         907|   -6.983384|   -9.635066|    0.824000|    0.011994|
[...]
|        5298|   -6.047532|   -7.930683|    0.824240|    0.011999|
|        5299|   -6.054238|   -7.934559|    0.824240|    0.011999|
|        5300|   -6.060509|   -7.938488|    0.824240|    0.011999|
|        5301|   -6.066313|   -7.942478|    0.824240|    0.011998|
|        5302|   -6.071629|   -7.946535|    0.824240|    0.011998|
|        5303|   -6.076450|   -7.950662|    0.824240|    0.011998|
|        5304|   -6.080782|   -7.954858|    0.824240|    0.011998|
|        5305|   -6.084641|   -7.959123|    0.824240|    0.011998|
|        5306|   -6.088058|   -7.963451|    0.824240|    0.011998|
|        5307|   -6.091071|   -7.967838|    0.824240|    0.011998|
|        5308|   -6.093729|   -7.972278|    0.824241|    0.011998|
|        5309|   -6.096085|   -7.976765|    0.824241|    0.011998|
|        5310|   -6.098197|   -7.981294|    0.824241|    0.011998|
|        5311|   -6.100126|   -7.985859|    0.824241|    0.011998|
|        5312|   -6.101933|   -7.990457|    0.824241|    0.011998|
|        5313|   -6.103679|   -7.995085|    0.824241|    0.011998|
|        5314|   -6.105417|   -7.999745|    0.824241|    0.011998|
|        5315|   -6.107199|   -8.004436|    0.824241|    0.011998|
|        5316|   -6.109073|   -8.009162|    0.824241|    0.011998|
|        5317|   -6.111081|   -8.013927|    0.824242|    0.011998|
|        5318|   -6.113259|   -8.018735|    0.824242|    0.011998|
|        5319|   -6.115638|   -8.023592|    0.824242|    0.011998|
|        5320|   -6.118240|   -8.028504|    0.824242|    0.011998|
|        5321|   -6.121081|   -8.033476|    0.824242|    0.011998|
|        5322|   -6.124170|   -8.038513|    0.824242|    0.011998|
|        5323|   -6.127510|   -8.043620|    0.824242|    0.011998|
|        5324|   -6.131096|   -8.048802|    0.824243|    0.011999|
|        5325|   -6.134919|   -8.054062|    0.824243|    0.011999|
|        5326|   -6.138961|   -8.059401|    0.824243|    0.011999|
|        5327|   -6.143198|   -8.064820|    0.824243|    0.011999|
|        5328|   -6.147604|   -8.070317|    0.824243|    0.011999|
|        5329|   -6.152143|   -8.075890|    0.824243|    0.011999|
|        5330|   -6.156779|   -8.081537|    0.824244|    0.011999|
|        5331|   -6.161469|   -8.087251|    0.824244|    0.011999|
|        5332|   -6.166169|   -8.093028|    0.824244|    0.011999|
|        5333|   -6.170834|   -8.098863|    0.824244|    0.011999|
|        5334|   -6.175418|   -8.104748|    0.824244|    0.011999|
|        5335|   -6.179876|   -8.110677|    0.824244|    0.011999|
|        5336|   -6.184167|   -8.116643|    0.824245|    0.012000|
|        5337|   -6.188253|   -8.122640|    0.824245|    0.012000|
|        5338|   -6.192102|   -8.128662|    0.824245|    0.012000|
|        5339|   -6.195688|   -8.134704|    0.824245|    0.012000|
|        5340|   -6.198995|   -8.140762|    0.824245|    0.012000|
|        5341|   -6.202013|   -8.146832|    0.824245|    0.012000|
|        5342|   -6.204742|   -8.152913|    0.824245|    0.012000|
|        5343|   -6.207191|   -8.159002|    0.824246|    0.012000|
|        5344|   -6.209376|   -8.165101|    0.824246|    0.012000|
|        5345|   -6.211324|   -8.171209|    0.824246|    0.012000|
|        5346|   -6.213065|   -8.177330|    0.824246|    0.012000|
|        5347|   -6.214637|   -8.183464|    0.824246|    0.012000|
|        5348|   -6.216081|   -8.189615|    0.824246|    0.012000|
|        5349|   -6.217441|   -8.195786|    0.824246|    0.012000|
|        5350|   -6.218765|   -8.201980|    0.824247|    0.012001|
|        5351|   -6.220096|   -8.208200|    0.824247|    0.012001|
|        5352|   -6.221482|   -8.214450|    0.824247|    0.012001|
|        5353|   -6.222966|   -8.220731|    0.824247|    0.012001|
|        5354|   -6.224587|   -8.227046|    0.824247|    0.012001|
|        5355|   -6.226385|   -8.233397|    0.824247|    0.012001|
|        5356|   -6.228391|   -8.239783|    0.824247|    0.012001|
|        5357|   -6.230637|   -8.246205|    0.824247|    0.012001|
|        5358|   -6.233146|   -8.252663|    0.824247|    0.012001|
|        5359|   -6.235939|   -8.259155|    0.824247|    0.012001|
|        5360|   -6.239031|   -8.265680|    0.824247|    0.012001|
|        5361|   -6.242432|   -8.272233|    0.824247|    0.012001|
|        5362|   -6.246148|   -8.278809|    0.824247|    0.012001|
|        5363|   -6.250178|   -8.285405|    0.824247|    0.012001|
|        5364|   -6.254518|   -8.292013|    0.824247|    0.012001|
|        5365|   -6.259159|   -8.298627|    0.824247|    0.012001|
|        5366|   -6.264084|   -8.305242|    0.824248|    0.012001|
|        5367|   -6.269276|   -8.311850|    0.824248|    0.012001|
|        5368|   -6.274708|   -8.318445|    0.824248|    0.012001|
|        5369|   -6.280351|   -8.325020|    0.824248|    0.012001|
|        5370|   -6.286172|   -8.331569|    0.824248|    0.012001|
|        5371|   -6.292133|   -8.338088|    0.824248|    0.012001|
|        5372|   -6.298191|   -8.344570|    0.824248|    0.012001|
|        5373|   -6.304302|   -8.351012|    0.824248|    0.012001|
|        5374|   -6.310419|   -8.357411|    0.824248|    0.012001|
|        5375|   -6.316492|   -8.363764|    0.824248|    0.012001|
|        5376|   -6.322471|   -8.370073|    0.824248|    0.012001|
|        5377|   -6.328306|   -8.376339|    0.824248|    0.012001|
|        5378|   -6.333951|   -8.382563|    0.824248|    0.012000|
|        5379|   -6.339359|   -8.388751|    0.824248|    0.012000|
|        5380|   -6.344490|   -8.394906|    0.824248|    0.012000|
|        5381|   -6.349307|   -8.401037|    0.824248|    0.012000|
|        5382|   -6.353780|   -8.407149|    0.824248|    0.012000|
|        5383|   -6.357887|   -8.413251|    0.824248|    0.012000|
|        5384|   -6.361612|   -8.419350|    0.824248|    0.012000|
|        5385|   -6.364946|   -8.425455|    0.824248|    0.012000|
|        5386|   -6.367889|   -8.431573|    0.824248|    0.012000|
|        5387|   -6.370447|   -8.437712|    0.824248|    0.012000|
|        5388|   -6.372633|   -8.443876|    0.824248|    0.012000|
|        5389|   -6.374463|   -8.450072|    0.824248|    0.012000|
|        5390|   -6.375961|   -8.456301|    0.824248|    0.012000|
|        5391|   -6.377151|   -8.462566|    0.824248|    0.011999|
|        5392|   -6.378060|   -8.468864|    0.824248|    0.011999|
|        5393|   -6.378717|   -8.475192|    0.824248|    0.011999|
|        5394|   -6.379149|   -8.481544|    0.824249|    0.011999|
|        5395|   -6.379383|   -8.487910|    0.824249|    0.011999|
|        5396|   -6.379444|   -8.494278|    0.824249|    0.011999|
|        5397|   -6.379355|   -8.500633|    0.824249|    0.011999|
|        5398|   -6.379138|   -8.506959|    0.824249|    0.011999|
|        5399|   -6.378809|   -8.513236|    0.824249|    0.011999|
|        5400|   -6.378385|   -8.519443|    0.824249|    0.011999|
|        5401|   -6.377877|   -8.525558|    0.824250|    0.011998|
|        5402|   -6.377298|   -8.531559|    0.824250|    0.011998|
|        5403|   -6.376654|   -8.537423|    0.824250|    0.011998|
|        5404|   -6.375953|   -8.543128|    0.824250|    0.011998|
|        5405|   -6.375201|   -8.548653|    0.824250|    0.011998|
|        5406|   -6.374401|   -8.553981|    0.824250|    0.011998|
|        5407|   -6.373554|   -8.559095|    0.824251|    0.011998|
|        5408|   -6.372665|   -8.563983|    0.824251|    0.011998|
|        5409|   -6.371734|   -8.568635|    0.824251|    0.011998|
|        5410|   -6.370765|   -8.573046|    0.824251|    0.011998|
|        5411|   -6.369760|   -8.577212|    0.824251|    0.011998|
|        5412|   -6.368720|   -8.581134|    0.824251|    0.011997|
|        5413|   -6.367649|   -8.584817|    0.824252|    0.011997|
|        5414|   -6.366550|   -8.588266|    0.824252|    0.011997|
|        5415|   -6.365429|   -8.591488|    0.824252|    0.011997|
|        5416|   -6.364288|   -8.594495|    0.824252|    0.011997|
|        5417|   -6.363134|   -8.597296|    0.824252|    0.011997|
|        5418|   -6.361973|   -8.599901|    0.824252|    0.011997|
|        5419|   -6.360811|   -8.602321|    0.824253|    0.011997|
|        5420|   -6.359656|   -8.604566|    0.824253|    0.011997|
|        5421|   -6.358516|   -8.606645|    0.824253|    0.011997|
|        5422|   -6.357400|   -8.608565|    0.824253|    0.011997|
|        5423|   -6.356318|   -8.610334|    0.824253|    0.011997|
|        5424|   -6.355280|   -8.611956|    0.824253|    0.011997|
|        5425|   -6.354297|   -8.613436|    0.824253|    0.011997|
|        5426|   -6.353383|   -8.614779|    0.824254|    0.011997|
|        5427|   -6.352548|   -8.615987|    0.824254|    0.011997|
|        5428|   -6.351808|   -8.617064|    0.824254|    0.011997|
|        5429|   -6.351176|   -8.618014|    0.824254|    0.011997|
|        5430|   -6.350667|   -8.618840|    0.824254|    0.011997|
|        5431|   -6.350295|   -8.619549|    0.824254|    0.011997|
|        5432|   -6.350077|   -8.620147|    0.824254|    0.011997|
|        5433|   -6.350028|   -8.620643|    0.824254|    0.011997|
|        5434|   -6.350163|   -8.621045|    0.824254|    0.011997|
|        5435|   -6.350498|   -8.621365|    0.824254|    0.011997|
|        5436|   -6.351047|   -8.621617|    0.824255|    0.011997|
|        5437|   -6.351824|   -8.621814|    0.824255|    0.011997|
|        5438|   -6.352843|   -8.621972|    0.824255|    0.011997|
|        5439|   -6.354115|   -8.622108|    0.824255|    0.011997|
|        5440|   -6.355651|   -8.622238|    0.824255|    0.011997|
|        5441|   -6.357461|   -8.622380|    0.824255|    0.011997|
|        5442|   -6.359550|   -8.622550|    0.824255|    0.011997|
|        5443|   -6.361925|   -8.622765|    0.824255|    0.011997|
|        5444|   -6.364587|   -8.623042|    0.824255|    0.011997|
|        5445|   -6.367538|   -8.623394|    0.824255|    0.011997|
|        5446|   -6.370774|   -8.623835|    0.824255|    0.011997|
|        5447|   -6.374291|   -8.624377|    0.824255|    0.011997|
|        5448|   -6.378079|   -8.625029|    0.824255|    0.011997|
|        5449|   -6.382127|   -8.625802|    0.824255|    0.011997|
|        5450|   -6.386419|   -8.626701|    0.824255|    0.011997|
|        5451|   -6.390936|   -8.627730|    0.824255|    0.011997|
|        5452|   -6.395657|   -8.628894|    0.824255|    0.011997|
|        5453|   -6.400555|   -8.630195|    0.824255|    0.011998|
|        5454|   -6.405601|   -8.631633|    0.824255|    0.011998|
|        5455|   -6.410761|   -8.633208|    0.824255|    0.011998|
|        5456|   -6.415999|   -8.634918|    0.824255|    0.011998|
|        5457|   -6.421276|   -8.636758|    0.824255|    0.011998|
|        5458|   -6.426550|   -8.638726|    0.824255|    0.011998|
|        5459|   -6.431777|   -8.640817|    0.824255|    0.011998|
|        5460|   -6.436912|   -8.643026|    0.824255|    0.011998|
|        5461|   -6.441909|   -8.645348|    0.824255|    0.011998|
|        5462|   -6.446723|   -8.647778|    0.824255|    0.011998|
|        5463|   -6.451310|   -8.650311|    0.824255|    0.011998|
|        5464|   -6.455627|   -8.652941|    0.824255|    0.011998|
|        5465|   -6.459636|   -8.655665|    0.824255|    0.011999|
|        5466|   -6.463303|   -8.658476|    0.824255|    0.011999|
|        5467|   -6.466598|   -8.661372|    0.824255|    0.011999|
|        5468|   -6.469500|   -8.664347|    0.824255|    0.011999|
|        5469|   -6.471993|   -8.667398|    0.824255|    0.011999|
|        5470|   -6.474067|   -8.670522|    0.824255|    0.011999|
|        5471|   -6.475721|   -8.673714|    0.824255|    0.011999|
|        5472|   -6.476961|   -8.676971|    0.824255|    0.011999|
|        5473|   -6.477801|   -8.680289|    0.824254|    0.011999|
|        5474|   -6.478258|   -8.683664|    0.824254|    0.011999|
|        5475|   -6.478359|   -8.687093|    0.824254|    0.011999|
|        5476|   -6.478133|   -8.690572|    0.824254|    0.011999|
|        5477|   -6.477613|   -8.694096|    0.824254|    0.011999|
|        5478|   -6.476837|   -8.697664|    0.824254|    0.011999|
|        5479|   -6.475842|   -8.701269|    0.824254|    0.011999|
|        5480|   -6.474667|   -8.704910|    0.824254|    0.012000|
|        5481|   -6.473350|   -8.708579|    0.824254|    0.012000|
|        5482|   -6.471930|   -8.712273|    0.824253|    0.012000|
|        5483|   -6.470445|   -8.715984|    0.824253|    0.012000|
|        5484|   -6.468929|   -8.719707|    0.824253|    0.012000|
|        5485|   -6.467416|   -8.723434|    0.824253|    0.012000|
|        5486|   -6.465937|   -8.727160|    0.824253|    0.012000|
|        5487|   -6.464521|   -8.730879|    0.824253|    0.012000|
|        5488|   -6.463193|   -8.734588|    0.824253|    0.012000|
|        5489|   -6.461975|   -8.738282|    0.824253|    0.012000|
|        5490|   -6.460890|   -8.741960|    0.824253|    0.012000|
|        5491|   -6.459953|   -8.745620|    0.824252|    0.012000|
|        5492|   -6.459180|   -8.749261|    0.824252|    0.012000|
|        5493|   -6.458583|   -8.752883|    0.824252|    0.012000|
|        5494|   -6.458174|   -8.756486|    0.824252|    0.012000|
|        5495|   -6.457960|   -8.760071|    0.824252|    0.012000|
|        5496|   -6.457947|   -8.763641|    0.824252|    0.012000|
|        5497|   -6.458141|   -8.767199|    0.824252|    0.012000|
|        5498|   -6.458545|   -8.770747|    0.824252|    0.012000|
|        5499|   -6.459160|   -8.774289|    0.824252|    0.011985|
+-----------------------------------------------------------------------+
|Fixed CL Mode (Finite Difference)       |Value                         |
+-----------------------------------------------------------------------+
|Delta CL / Delta AoA                    |0.251399                      |
|Delta CD / Delta CL                     |0.0205794                     |
|Delta CMz / Delta CL                    |0.0153503                     |
+-----------------------------------------------------------------------+
Writing Flow Meta-Data file: flow.meta

----------------------------- Solver Exit -------------------------------

Maximum number of iterations reached (ITER = 5500) before convergence.
+-----------------------------------------------------------------------+
|      Convergence Field     |     Value    |   Criterion  |  Converged |
+-----------------------------------------------------------------------+
|                    rms[Rho]|      -6.45916|         < -12|          No|
+-----------------------------------------------------------------------+
-------------------------------------------------------------------------

--------------------------- Finalizing Solver ---------------------------
Deleted CNumerics container.
Deleted CIntegration container.
Deleted CSolver container.
Deleted CIteration container.
Deleted CInterface container.
Deleted CGeometry container.
Deleted CFreeFormDefBox class.
Deleted CSurfaceMovement class.
Deleted CVolumetricMovement class.
Deleted CConfig container.
Deleted nInst container.
Deleted COutput class.
-------------------------------------------------------------------------

------------------------- Exit Success (SU2_CFD) ------------------------


-------------------------------------------------------------------------
|    ___ _   _ ___                                                      |
|   / __| | | |_  )   Release 8.0.0 "Harrier"                           |
|   \__ \ |_| |/ /                                                      |
|   |___/\___//___|   Suite (Solution Exporting Code)                   |
|                                                                       |
-------------------------------------------------------------------------
| SU2 Project Website: https://su2code.github.io                        |
|                                                                       |
| The SU2 Project is maintained by the SU2 Foundation                   |
| (http://su2foundation.org)                                            |
-------------------------------------------------------------------------
| Copyright 2012-2023, SU2 Contributors                                 |
|                                                                       |
| SU2 is free software; you can redistribute it and/or                  |
| modify it under the terms of the GNU Lesser General Public            |
| License as published by the Free Software Foundation; either          |
| version 2.1 of the License, or (at your option) any later version.    |
|                                                                       |
| SU2 is distributed in the hope that it will be useful,                |
| but WITHOUT ANY WARRANTY; without even the implied warranty of        |
| MERCHANTABILITY or FITNESS FOR A PARTICULAR PURPOSE. See the GNU      |
| Lesser General Public License for more details.                       |
|                                                                       |
| You should have received a copy of the GNU Lesser General Public      |
| License along with SU2. If not, see <http://www.gnu.org/licenses/>.   |
-------------------------------------------------------------------------

----------------- Physical Case Definition ( Zone 0 ) -------------------
Input mesh file name: mesh_RAE2822_turb_deform.su2

-------------------- Output Information ( Zone 0 ) ----------------------
The tabular file format is CSV (.csv).
Flow variables file name: flow.

------------- Config File Boundary Information ( Zone 0 ) ---------------
+-----------------------------------------------------------------------+
|                        Marker Type|                        Marker Name|
+-----------------------------------------------------------------------+
|                          Far-field|                           FARFIELD|
+-----------------------------------------------------------------------+
|                     Heat flux wall|                            AIRFOIL|
+-----------------------------------------------------------------------+
Two dimensional problem.
13937 grid points before partitioning.
22842 volume elements before partitioning.
2 surface markers.
192 boundary elements in index 0 (Marker = AIRFOIL).
40 boundary elements in index 1 (Marker = FARFIELD).
Executing the partitioning functions.
Building the graph adjacency structure.
Calling ParMETIS... graph partitioning complete (831 edge cuts).
Distributing ParMETIS coloring.
Rebalancing vertices.
Rebalancing volume element connectivity.
Rebalancing markers and surface elements.
14875 vertices including ghost points. 
23674 interior elements including halo cells. 
18780 triangles.
4894 quadrilaterals.
Establishing MPI communication patterns.
Identify vertices.
Storing a mapping from global to local point index.

------------------------- Solution Postprocessing -----------------------
Reading and storing the solution from restart_flow.
Volume output fields: COORDINATES, SOLUTION
  Info: Ignoring the following screen output fields:
  RMS_DENSITY, RMS_NU_TILDE, LIFT, DRAG
Screen output fields: INNER_ITER
  Info: Ignoring the following history output groups:
  RMS_RES, AERO_COEFF
History output group(s): ITER
Warning: No (valid) fields chosen for convergence monitoring. Convergence monitoring inactive.
Warning: No (valid) fields chosen for time convergence monitoring. Time convergence monitoring inactive.
|Paraview                           |flow.vtu                           |
|Paraview surface                   |surface_flow.vtu                   |
|CSV file                           |surface_flow.csv                   |

------------------------- Finalize Solver -------------------------
Deleted CGeometry container.
Deleted CSolver class.
Deleted CConfig container.
Deleted COutput class.

Completed in 0.018067 seconds on 6 cores.

------------------------- Exit Success (SU2_SOL) ------------------------

