
-------------------------------------------------------------------------
|    ___ _   _ ___                                                      |
|   / __| | | |_  )   Release 8.0.0 "Harrier"                           |
|   \__ \ |_| |/ /                                                      |
|   |___/\___//___|   Suite (Computational Fluid Dynamics Code)         |
|                                                                       |
-------------------------------------------------------------------------
| SU2 Project Website: https://su2code.github.io                        |
|                                                                       |
| The SU2 Project is maintained by the SU2 Foundation                   |
| (http://su2foundation.org)                                            |
-------------------------------------------------------------------------
| Copyright 2012-2023, SU2 Contributors                                 |
|                                                                       |
| SU2 is free software; you can redistribute it and/or                  |
| modify it under the terms of the GNU Lesser General Public            |
| License as published by the Free Software Foundation; either          |
| version 2.1 of the License, or (at your option) any later version.    |
|                                                                       |
| SU2 is distributed in the hope that it will be useful,                |
| but WITHOUT ANY WARRANTY; without even the implied warranty of        |
| MERCHANTABILITY or FITNESS FOR A PARTICULAR PURPOSE. See the GNU      |
| Lesser General Public License for more details.                       |
|                                                                       |
| You should have received a copy of the GNU Lesser General Public      |
| License along with SU2. If not, see <http://www.gnu.org/licenses/>.   |
-------------------------------------------------------------------------

Parsing config file for zone 0

----------------- Physical Case Definition ( Zone 0 ) -------------------
Compressible RANS equations.
Turbulence model: Spalart-Allmaras-noft2
Hybrid RANS/LES: No Hybrid RANS/LES
Mach number: 0.734.
Angle of attack (AoA): 2.31 deg, and angle of sideslip (AoS): 0 deg.
Reynolds number: 6.5e+06. Reference length 1.
Fixed CL mode, target value: 0.824.
Reading and writing binary SU2 native restart files.
Read flow solution from: solution_flow.dat.
Dimensional simulation.
The reference area is 1 m^2.
The semi-span will be computed using the max y(3D) value.
The reference length is 1 m.
Reference origin for moment evaluation is (0.25, 0, 0).
Surface(s) where the force coefficients are evaluated: AIRFOIL.

Surface(s) plotted in the output file: AIRFOIL.
Surface(s) affected by the design variables: AIRFOIL.
Input mesh file name: mesh_RAE2822_turb_deform.su2

--------------- Space Numerical Integration ( Zone 0 ) ------------------
Jameson-Schmidt-Turkel scheme (2nd order in space) for the flow inviscid terms.
JST viscous coefficients (2nd & 4th): 0.5, 0.02.
The method includes a grid stretching correction (p = 0.3).
Scalar upwind solver for the turbulence model.
First order integration in space.
Average of gradients with correction (viscous flow terms).
Average of gradients with correction (viscous turbulence terms).
Gradient for viscous and source terms: inverse-distance weighted Least-Squares.

--------------- Time Numerical Integration  ( Zone 0 ) ------------------
Local time stepping (steady state simulation).
Euler implicit method for the flow equations.
FGMRES is used for solving the linear system.
Using a ILU(0) preconditioning.
Convergence criteria of the linear solver: 1e-06.
Max number of linear iterations: 10.
No CFL adaptation.
Courant-Friedrichs-Lewy number:       10
Euler implicit time integration for the turbulence model.

------------------ Convergence Criteria  ( Zone 0 ) ---------------------
Maximum number of solver subiterations: 5500.
Begin convergence monitoring at iteration 10.
Residual minimum value: 1e-12.
Cauchy series min. value: 1e-06.
Number of Cauchy elements: 100.
Begin windowed time average at iteration 0.

-------------------- Output Information ( Zone 0 ) ----------------------
File writing frequency: 
+------------------------------------+
|                     File| Frequency|
+------------------------------------+
|                  RESTART|     10000|
|                 PARAVIEW|     10000|
|         SURFACE_PARAVIEW|     10000|
|              SURFACE_CSV|     10000|
+------------------------------------+
Writing the convergence history file every 1 inner iterations.
Writing the screen convergence history every 1 inner iterations.
The tabular file format is CSV (.csv).
Convergence history file name: history_direct.
Forces breakdown file name: forces_breakdown.dat.
Surface file name: surface_flow.
Volume file name: flow.
Restart file name: restart_flow.dat.

------------- Config File Boundary Information ( Zone 0 ) ---------------
+-----------------------------------------------------------------------+
|                        Marker Type|                        Marker Name|
+-----------------------------------------------------------------------+
|                          Far-field|                           FARFIELD|
+-----------------------------------------------------------------------+
|                     Heat flux wall|                            AIRFOIL|
+-----------------------------------------------------------------------+

-------------------- Output Preprocessing ( Zone 0 ) --------------------

WARNING: SURFACE_PRESSURE_DROP can only be computed for at least 2 surfaces (outlet, inlet, ...)

Screen output fields: INNER_ITER, RMS_DENSITY, RMS_NU_TILDE, LIFT, DRAG
History output group(s): ITER, RMS_RES, AERO_COEFF
Convergence field(s): RMS_DENSITY
Warning: No (valid) fields chosen for time convergence monitoring. Time convergence monitoring inactive.
Volume output fields: COORDINATES, SOLUTION, PRIMITIVE

------------------- Geometry Preprocessing ( Zone 0 ) -------------------
Two dimensional problem.
13937 grid points before partitioning.
22842 volume elements before partitioning.
2 surface markers.
192 boundary elements in index 0 (Marker = AIRFOIL).
40 boundary elements in index 1 (Marker = FARFIELD).
Executing the partitioning functions.
Building the graph adjacency structure.
Calling ParMETIS... graph partitioning complete (831 edge cuts).
Distributing ParMETIS coloring.
Rebalancing vertices.
Rebalancing volume element connectivity.
Rebalancing markers and surface elements.
14875 vertices including ghost points. 
23674 interior elements including halo cells. 
18780 triangles.
4894 quadrilaterals.
Establishing MPI communication patterns.
Setting point connectivity.
Renumbering points (Reverse Cuthill McKee Ordering).
Recomputing point connectivity.
Setting element connectivity.
Checking the numerical grid orientation.
All volume elements are correctly orientend.
All surface elements are correctly orientend.
Identifying edges and vertices.
Setting the control volume structure.
Area of the computational grid: 32209.9.
Searching for the closest normal neighbors to the surfaces.
Storing a mapping from global to local point index.
Compute the surface curvature.
Max K: 179.896. Mean K: 7.93245. Standard deviation K: 24.5542.
Checking for periodicity.
Computing mesh quality statistics for the dual control volumes.
+--------------------------------------------------------------+
|           Mesh Quality Metric|        Minimum|        Maximum|
+--------------------------------------------------------------+
|    Orthogonality Angle (deg.)|        75.0293|        89.9995|
|     CV Face Area Aspect Ratio|        1.00483|        3358.36|
|           CV Sub-Volume Ratio|        1.00047|        1216.31|
+--------------------------------------------------------------+
Finding max control volume width.
Communicating number of neighbors.
Wetted area = 2.02169 m.
Area projection in the x-plane = 0.125363 m, y-plane = 0.995873 m.
Max. coordinate in the x-direction = 1 m, y-direction = 0.0620387 m.
Min. coordinate in the x-direction = 0 m, y-direction = -0.0602703 m.
Computing wall distances.

-------------------- Solver Preprocessing ( Zone 0 ) --------------------
WARNING: AoA in the solution file (2.78342 deg.) +
         AoA offset in mesh file (0 deg.) = 2.78342 deg.
WARNING: SU2 will use the dCD/dCL provided in the direct solution file: 0.0150213.
WARNING: SU2 will use the dCMz/dCL provided in the direct solution file: 0.0237707.
Viscous flow: Computing pressure using the ideal gas law
based on the free-stream temperature and a density computed
from the Reynolds number.
Force coefficients computed using free-stream values.

-- Models:
+------------------------------------------------------------------------------+
|          Viscosity Model|        Conductivity Model|              Fluid Model|
+------------------------------------------------------------------------------+
|               SUTHERLAND|          CONSTANT_PRANDTL|             STANDARD_AIR|
+------------------------------------------------------------------------------+
-- Fluid properties:
+------------------------------------------------------------------------------+
|                  Name|    Dim. value|    Ref. value|      Unit|Non-dim. value|
+------------------------------------------------------------------------------+
|        Ref. Viscosity|     1.716e-05|             1|   N.s/m^2|     1.716e-05|
|      Sutherland Temp.|        273.15|             1|         K|        273.15|
|     Sutherland Const.|         110.4|             1|         K|         110.4|
+------------------------------------------------------------------------------+
|        Prandtl (Lam.)|             -|             -|         -|          0.71|
|       Prandtl (Turb.)|             -|             -|         -|           0.9|
+------------------------------------------------------------------------------+
|          Gas Constant|       287.058|             1|  N.m/kg.K|       287.058|
|      Spec. Heat Ratio|             -|             -|         -|           1.4|
+------------------------------------------------------------------------------+
-- Initial and free-stream conditions:
+------------------------------------------------------------------------------+
|                  Name|    Dim. value|    Ref. value|      Unit|Non-dim. value|
+------------------------------------------------------------------------------+
|       Static Pressure|         38515|             1|        Pa|         38515|
|               Density|      0.465631|             1|    kg/m^3|      0.465631|
|           Temperature|        288.15|             1|         K|        288.15|
|          Total Energy|        237984|             1|   m^2/s^2|        237984|
|            Velocity-X|       249.483|             1|       m/s|       249.483|
|            Velocity-Y|       12.1294|             1|       m/s|       12.1294|
|    Velocity Magnitude|       249.778|             1|       m/s|       249.778|
+------------------------------------------------------------------------------+
|             Viscosity|    1.7893e-05|             1|   N.s/m^2|    1.7893e-05|
|          Conductivity|             -|             1|   W/m^2.K|             -|
|     Turb. Kin. Energy|       233.959|             1|   m^2/s^2|       233.959|
|     Spec. Dissipation|        608834|             1|       1/s|        608834|
+------------------------------------------------------------------------------+
|           Mach Number|             -|             -|         -|         0.734|
|       Reynolds Number|             -|             -|         -|       6.5e+06|
+------------------------------------------------------------------------------+
Initialize Jacobian structure (Navier-Stokes). MG level: 0.
Initialize Jacobian structure (SA model).

------------------- Numerics Preprocessing ( Zone 0 ) -------------------

----------------- Integration Preprocessing ( Zone 0 ) ------------------

------------------- Iteration Preprocessing ( Zone 0 ) ------------------
Euler/Navier-Stokes/RANS fluid iteration.

------------------------------ Begin Solver -----------------------------

Simulation Run using the Single-zone Driver
WARNING: SU2 was not compiled for an AVX-capable architecture. Performance could be better,
         see https://su2code.github.io/docs_v7/Build-SU2-Linux-MacOS/#compiler-optimizations
+----------------------------------------------------------------+
|  Inner_Iter|    rms[Rho]|     rms[nu]|          CL|          CD|
+----------------------------------------------------------------+
|           0|   -4.232050|   -5.325542|    0.823914|    0.012300|
|           1|   -4.300790|   -5.423634|    0.823777|    0.012256|
|           2|   -4.373543|   -5.529972|    0.823608|    0.012229|
|           3|   -4.426374|   -5.642427|    0.823446|    0.012213|
|           4|   -4.464443|   -5.763653|    0.823320|    0.012203|
|           5|   -4.493931|   -5.889076|    0.823238|    0.012194|
|           6|   -4.513379|   -5.990810|    0.823195|    0.012184|
|           7|   -4.521348|   -6.028286|    0.823179|    0.012172|
|           8|   -4.520010|   -6.010912|    0.823180|    0.012158|
|           9|   -4.512320|   -5.982262|    0.823191|    0.012144|
|          10|   -4.500043|   -5.964643|    0.823207|    0.012130|
|          11|   -4.484441|   -5.960658|    0.823227|    0.012117|
|          12|   -4.467116|   -5.965424|    0.823249|    0.012106|
|          13|   -4.449860|   -5.972216|    0.823270|    0.012095|
|          14|   -4.434113|   -5.975135|    0.823288|    0.012084|
|          15|   -4.420679|   -5.970483|    0.823300|    0.012074|
|          16|   -4.409776|   -5.956929|    0.823304|    0.012062|
|          17|   -4.401228|   -5.935103|    0.823298|    0.012049|
|          18|   -4.394662|   -5.907338|    0.823281|    0.012035|
|          19|   -4.389651|   -5.876980|    0.823252|    0.012019|
|          20|   -4.385788|   -5.847491|    0.823213|    0.012002|
|          21|   -4.382715|   -5.821682|    0.823164|    0.011983|
|          22|   -4.380118|   -5.801370|    0.823107|    0.011964|
|          23|   -4.377713|   -5.787430|    0.823044|    0.011945|
|          24|   -4.375253|   -5.780024|    0.822978|    0.011926|
|          25|   -4.372548|   -5.778812|    0.822909|    0.011907|
|          26|   -4.369488|   -5.783123|    0.822840|    0.011891|
|          27|   -4.366060|   -5.792039|    0.822773|    0.011876|
|          28|   -4.362340|   -5.804472|    0.822708|    0.011863|
|          29|   -4.358468|   -5.819224|    0.822647|    0.011851|
|          30|   -4.354621|   -5.835044|    0.822589|    0.011842|
|          31|   -4.350981|   -5.850734|    0.822536|    0.011835|
|          32|   -4.347707|   -5.865266|    0.822488|    0.011828|
|          33|   -4.344926|   -5.877888|    0.822444|    0.011823|
|          34|   -4.342728|   -5.888173|    0.822404|    0.011819|
|          35|   -4.341158|   -5.896008|    0.822368|    0.011815|
|          36|   -4.340222|   -5.901514|    0.822336|    0.011812|
|          37|   -4.339886|   -5.904940|    0.822308|    0.011809|
|          38|   -4.340087|   -5.906594|    0.822284|    0.011805|
|          39|   -4.340731|   -5.906798|    0.822263|    0.011802|
|          40|   -4.341712|   -5.905877|    0.822245|    0.011798|
|          41|   -4.342924|   -5.904166|    0.822230|    0.011794|
|          42|   -4.344277|   -5.902017|    0.822218|    0.011790|
|          43|   -4.345701|   -5.899786|    0.822208|    0.011786|
|          44|   -4.347151|   -5.897819|    0.822200|    0.011783|
|          45|   -4.348601|   -5.896420|    0.822194|    0.011780|
|          46|   -4.350055|   -5.895833|    0.822190|    0.011777|
|          47|   -4.351520|   -5.896213|    0.822186|    0.011774|
|          48|   -4.353010|   -5.897618|    0.822182|    0.011772|
|          49|   -4.354540|   -5.900012|    0.822179|    0.011771|
|          50|   -4.356122|   -5.903261|    0.822174|    0.011770|
|          51|   -4.357763|   -5.907151|    0.822168|    0.011769|
|          52|   -4.359467|   -5.911410|    0.822161|    0.011769|
|          53|   -4.361235|   -5.915732|    0.822151|    0.011768|
|          54|   -4.363068|   -5.919802|    0.822139|    0.011769|
|          55|   -4.364968|   -5.923330|    0.822124|    0.011769|
|          56|   -4.366931|   -5.926081|    0.822106|    0.011769|
|          57|   -4.368950|   -5.927894|    0.822086|    0.011769|
|          58|   -4.371021|   -5.928691|    0.822062|    0.011769|
|          59|   -4.373135|   -5.928481|    0.822036|    0.011768|
|          60|   -4.375282|   -5.927342|    0.822007|    0.011767|
|          61|   -4.377452|   -5.925413|    0.821976|    0.011766|
|          62|   -4.379633|   -5.922865|    0.821943|    0.011765|
|          63|   -4.381813|   -5.919878|    0.821909|    0.011764|
|          64|   -4.383983|   -5.916627|    0.821874|    0.011762|
|          65|   -4.386135|   -5.913269|    0.821839|    0.011760|
|          66|   -4.388259|   -5.909939|    0.821804|    0.011758|
|          67|   -4.390346|   -5.906742|    0.821769|    0.011755|
|          68|   -4.392388|   -5.903770|    0.821735|    0.011753|
|          69|   -4.394376|   -5.901097|    0.821702|    0.011751|
|          70|   -4.396296|   -5.898781|    0.821670|    0.011748|
|          71|   -4.398133|   -5.896872|    0.821640|    0.011746|
|          72|   -4.399872|   -5.895416|    0.821610|    0.011744|
|          73|   -4.401496|   -5.894449|    0.821583|    0.011742|
|          74|   -4.402994|   -5.893994|    0.821556|    0.011740|
|          75|   -4.404354|   -5.894065|    0.821531|    0.011739|
|          76|   -4.405569|   -5.894659|    0.821507|    0.011737|
|          77|   -4.406633|   -5.895757|    0.821483|    0.011736|
|          78|   -4.407544|   -5.897324|    0.821460|    0.011735|
|          79|   -4.408297|   -5.899304|    0.821438|    0.011733|
|          80|   -4.408888|   -5.901636|    0.821416|    0.011732|
|          81|   -4.409311|   -5.904255|    0.821395|    0.011731|
|          82|   -4.409560|   -5.907086|    0.821373|    0.011730|
|          83|   -4.409628|   -5.910063|    0.821352|    0.011728|
|          84|   -4.409507|   -5.913117|    0.821331|    0.011727|
|          85|   -4.409192|   -5.916189|    0.821310|    0.011726|
|          86|   -4.408681|   -5.919228|    0.821290|    0.011725|
|          87|   -4.407974|   -5.922197|    0.821270|    0.011723|
|          88|   -4.407076|   -5.925065|    0.821251|    0.011722|
|          89|   -4.405994|   -5.927809|    0.821231|    0.011721|
|          90|   -4.404737|   -5.930413|    0.821213|    0.011720|
|          91|   -4.403317|   -5.932869|    0.821195|    0.011719|
|          92|   -4.401746|   -5.935172|    0.821178|    0.011718|
|          93|   -4.400036|   -5.937327|    0.821162|    0.011718|
|          94|   -4.398200|   -5.939334|    0.821147|    0.011717|
|          95|   -4.396250|   -5.941204|    0.821132|    0.011717|
|          96|   -4.394199|   -5.942947|    0.821118|    0.011716|
|          97|   -4.392058|   -5.944577|    0.821105|    0.011716|
|          98|   -4.389841|   -5.946109|    0.821093|    0.011717|
|          99|   -4.387557|   -5.947559|    0.821081|    0.011717|
|         100|   -4.385220|   -5.948942|    0.821070|    0.011717|
|         101|   -4.382841|   -5.950272|    0.821056|    0.011928|
+-----------------------------------------------------------------------+
|Fixed CL Mode                           |Value                         |
+-----------------------------------------------------------------------+
|Current CL                              |0.821056                      |
|Target CL                               |0.824                         |
|Previous AOA                            |2.78342                       |
|Changed AoA by                          |0.0146501                     |
+-----------------------------------------------------------------------+
+----------------------------------------------------------------+
|  Inner_Iter|    rms[Rho]|     rms[nu]|          CL|          CD|
+----------------------------------------------------------------+
|         102|   -2.027517|   -5.872591|    0.821046|    0.011929|
|         103|   -2.411820|   -5.910626|    0.821036|    0.011930|
|         104|   -2.655692|   -5.923442|    0.821026|    0.011931|
|         105|   -2.734795|   -5.931022|    0.821017|    0.011932|
|         106|   -2.788883|   -5.936774|    0.821008|    0.011933|
|         107|   -2.859104|   -5.941674|    0.820998|    0.011935|
|         108|   -2.946113|   -5.945894|    0.820989|    0.011936|
|         109|   -3.037347|   -5.949526|    0.820980|    0.011937|
|         110|   -3.116252|   -5.952719|    0.820970|    0.011939|
|         111|   -3.174133|   -5.955546|    0.820961|    0.011940|
|         112|   -3.212321|   -5.958079|    0.820951|    0.011941|
|         113|   -3.234503|   -5.960452|    0.820941|    0.011942|
|         114|   -3.244504|   -5.962823|    0.820932|    0.011943|
|         115|   -3.248322|   -5.965293|    0.820922|    0.011944|
|         116|   -3.252794|   -5.967890|    0.820912|    0.011945|
|         117|   -3.262524|   -5.970611|    0.820902|    0.011946|
|         118|   -3.278613|   -5.973495|    0.820893|    0.011947|
|         119|   -3.299242|   -5.976576|    0.820883|    0.011948|
|         120|   -3.321177|   -5.979942|    0.820873|    0.011949|
|         121|   -3.341654|   -5.983623|    0.820864|    0.011950|
|         122|   -3.359729|   -5.987654|    0.820855|    0.011950|
|         123|   -3.376237|   -5.992044|    0.820846|    0.011951|
|         124|   -3.392608|   -5.996790|    0.820837|    0.011952|
|         125|   -3.409732|   -6.001879|    0.820828|    0.011953|
|         126|   -3.427566|   -6.007288|    0.820820|    0.011954|
|         127|   -3.445384|   -6.012986|    0.820813|    0.011955|
|         128|   -3.462214|   -6.018955|    0.820806|    0.011956|
|         129|   -3.477188|   -6.025173|    0.820799|    0.011958|
|         130|   -3.489726|   -6.031676|    0.820793|    0.011959|
|         131|   -3.499642|   -6.038436|    0.820789|    0.011961|
|         132|   -3.507218|   -6.045475|    0.820785|    0.011963|
|         133|   -3.513187|   -6.052799|    0.820782|    0.011965|
|         134|   -3.518582|   -6.060403|    0.820780|    0.011967|
|         135|   -3.524482|   -6.068272|    0.820780|    0.011970|
|         136|   -3.531775|   -6.076402|    0.820781|    0.011973|
|         137|   -3.541004|   -6.084793|    0.820784|    0.011976|
|         138|   -3.552316|   -6.093426|    0.820789|    0.011979|
|         139|   -3.565450|   -6.102230|    0.820795|    0.011983|
|         140|   -3.579781|   -6.111193|    0.820804|    0.011986|
|         141|   -3.594401|   -6.120306|    0.820815|    0.011990|
|         142|   -3.608285|   -6.129550|    0.820828|    0.011994|
|         143|   -3.620538|   -6.138869|    0.820844|    0.011999|
|         144|   -3.630662|   -6.148240|    0.820864|    0.012003|
|         145|   -3.638712|   -6.157610|    0.820886|    0.012008|
|         146|   -3.645271|   -6.167013|    0.820911|    0.012013|
|         147|   -3.651234|   -6.176344|    0.820941|    0.012018|
|         148|   -3.657538|   -6.185626|    0.820974|    0.012023|
|         149|   -3.664933|   -6.194851|    0.821011|    0.012029|
|         150|   -3.673859|   -6.203962|    0.821053|    0.012035|
|         151|   -3.684413|   -6.212926|    0.821100|    0.012041|
|         152|   -3.696397|   -6.221740|    0.821151|    0.012047|
|         153|   -3.709394|   -6.230441|    0.821208|    0.012053|
|         154|   -3.722878|   -6.238946|    0.821270|    0.012060|
|         155|   -3.736330|   -6.247232|    0.821337|    0.012067|
|         156|   -3.749341|   -6.255353|    0.821409|    0.012074|
|         157|   -3.761684|   -6.263350|    0.821487|    0.012081|
|         158|   -3.773329|   -6.271280|    0.821570|    0.012089|
|         159|   -3.784417|   -6.279183|    0.821658|    0.012096|
|         160|   -3.795184|   -6.287137|    0.821751|    0.012104|
|         161|   -3.805891|   -6.295236|    0.821849|    0.012112|
|         162|   -3.816765|   -6.303664|    0.821951|    0.012121|
|         163|   -3.827958|   -6.312499|    0.822057|    0.012129|
|         164|   -3.839544|   -6.321819|    0.822166|    0.012138|
|         165|   -3.851527|   -6.331704|    0.822278|    0.012146|
|         166|   -3.863867|   -6.342216|    0.822392|    0.012155|
|         167|   -3.876500|   -6.353394|    0.822507|    0.012163|
|         168|   -3.889366|   -6.365413|    0.822623|    0.012172|
|         169|   -3.902412|   -6.378144|    0.822739|    0.012180|
|         170|   -3.915602|   -6.391526|    0.822855|    0.012188|
|         171|   -3.928907|   -6.405477|    0.822968|    0.012196|
|         172|   -3.942303|   -6.419831|    0.823079|    0.012204|
|         173|   -3.955754|   -6.434278|    0.823187|    0.012212|
|         174|   -3.969210|   -6.448540|    0.823290|    0.012219|
|         175|   -3.982599|   -6.462184|    0.823389|    0.012226|
|         176|   -3.995832|   -6.474692|    0.823482|    0.012233|
|         177|   -4.008803|   -6.485491|    0.823569|    0.012239|
|         178|   -4.021394|   -6.493946|    0.823650|    0.012245|
|         179|   -4.033489|   -6.499511|    0.823723|    0.012250|
|         180|   -4.044975|   -6.502009|    0.823788|    0.012255|
|         181|   -4.055751|   -6.501004|    0.823845|    0.012260|
|         182|   -4.065736|   -6.496490|    0.823894|    0.012263|
|         183|   -4.074873|   -6.488784|    0.823935|    0.012267|
|         184|   -4.083131|   -6.478473|    0.823967|    0.012270|
|         185|   -4.090507|   -6.466212|    0.823990|    0.012272|
|         186|   -4.097029|   -6.452713|    0.824005|    0.012274|
|         187|   -4.102749|   -6.438636|    0.824011|    0.012276|
|         188|   -4.107745|   -6.424602|    0.824010|    0.012277|
|         189|   -4.112115|   -6.411136|    0.824000|    0.012278|
|         190|   -4.115970|   -6.398617|    0.823983|    0.012278|
|         191|   -4.119431|   -6.387332|    0.823959|    0.012278|
|         192|   -4.122618|   -6.377502|    0.823929|    0.012278|
|         193|   -4.125651|   -6.369278|    0.823892|    0.012277|
|         194|   -4.128642|   -6.362786|    0.823850|    0.012276|
|         195|   -4.131692|   -6.358133|    0.823802|    0.012274|
|         196|   -4.134890|   -6.355374|    0.823750|    0.012273|
|         197|   -4.138308|   -6.354553|    0.823694|    0.012271|
|         198|   -4.142006|   -6.355697|    0.823634|    0.012269|
|         199|   -4.146023|   -6.358818|    0.823571|    0.012267|
|         200|   -4.150390|   -6.363913|    0.823506|    0.012264|
|         201|   -4.155118|   -6.370971|    0.823437|    0.012297|
+-----------------------------------------------------------------------+
|Fixed CL Mode                           |Value                         |
+-----------------------------------------------------------------------+
|Current CL                              |0.823437                      |
|Target CL                               |0.824                         |
|Previous AOA                            |2.79807                       |
|Changed AoA by                          |0.00247233                    |
+-----------------------------------------------------------------------+
+----------------------------------------------------------------+
|  Inner_Iter|    rms[Rho]|     rms[nu]|          CL|          CD|
+----------------------------------------------------------------+
|         202|   -2.799741|   -6.359535|    0.823368|    0.012295|
|         203|   -3.179012|   -6.379395|    0.823298|    0.012292|
|         204|   -3.407525|   -6.394739|    0.823227|    0.012289|
|         205|   -3.476984|   -6.410608|    0.823156|    0.012286|
|         206|   -3.526025|   -6.427652|    0.823086|    0.012283|
|         207|   -3.590524|   -6.445844|    0.823016|    0.012280|
|         208|   -3.669653|   -6.464953|    0.822947|    0.012276|
|         209|   -3.752065|   -6.484690|    0.822879|    0.012273|
|         210|   -3.824890|   -6.504634|    0.822813|    0.012270|
|         211|   -3.882268|   -6.524186|    0.822750|    0.012266|
|         212|   -3.925033|   -6.542647|    0.822688|    0.012263|
|         213|   -3.954696|   -6.559257|    0.822630|    0.012259|
|         214|   -3.972632|   -6.573269|    0.822575|    0.012256|
|         215|   -3.982678|   -6.584006|    0.822523|    0.012253|
|         216|   -3.990581|   -6.590976|    0.822474|    0.012249|
|         217|   -4.000993|   -6.593983|    0.822430|    0.012246|
|         218|   -4.015711|   -6.593078|    0.822389|    0.012243|
|         219|   -4.033950|   -6.588681|    0.822353|    0.012240|
|         220|   -4.053707|   -6.581429|    0.822321|    0.012237|
|         221|   -4.073318|   -6.572081|    0.822293|    0.012234|
|         222|   -4.092385|   -6.561404|    0.822270|    0.012231|
|         223|   -4.111588|   -6.549992|    0.822252|    0.012228|
|         224|   -4.131761|   -6.538370|    0.822238|    0.012225|
|         225|   -4.153064|   -6.526962|    0.822228|    0.012223|
|         226|   -4.174744|   -6.516091|    0.822224|    0.012220|
|         227|   -4.195421|   -6.505981|    0.822224|    0.012218|
|         228|   -4.213638|   -6.496803|    0.822228|    0.012216|
|         229|   -4.228359|   -6.488665|    0.822237|    0.012214|
|         230|   -4.239248|   -6.481659|    0.822251|    0.012212|
|         231|   -4.246700|   -6.475791|    0.822268|    0.012210|
|         232|   -4.251681|   -6.471049|    0.822289|    0.012209|
|         233|   -4.255464|   -6.467409|    0.822314|    0.012207|
|         234|   -4.259324|   -6.464809|    0.822343|    0.012206|
|         235|   -4.264291|   -6.463170|    0.822375|    0.012205|
|         236|   -4.270990|   -6.462400|    0.822410|    0.012204|
|         237|   -4.279591|   -6.462403|    0.822448|    0.012203|
|         238|   -4.289827|   -6.463066|    0.822488|    0.012202|
|         239|   -4.301052|   -6.464278|    0.822531|    0.012201|
|         240|   -4.312340|   -6.465931|    0.822575|    0.012201|
|         241|   -4.322634|   -6.467923|    0.822621|    0.012200|
|         242|   -4.330963|   -6.470155|    0.822668|    0.012200|
|         243|   -4.336690|   -6.472532|    0.822717|    0.012199|
|         244|   -4.339686|   -6.474974|    0.822766|    0.012199|
|         245|   -4.340354|   -6.477414|    0.822816|    0.012198|
|         246|   -4.339468|   -6.479799|    0.822866|    0.012198|
|         247|   -4.337923|   -6.482090|    0.822915|    0.012197|
|         248|   -4.336509|   -6.484259|    0.822965|    0.012197|
|         249|   -4.335765|   -6.486293|    0.823015|    0.012197|
|         250|   -4.335945|   -6.488187|    0.823063|    0.012196|
|         251|   -4.337048|   -6.489949|    0.823111|    0.012195|
|         252|   -4.338898|   -6.491593|    0.823159|    0.012195|
|         253|   -4.341230|   -6.493135|    0.823205|    0.012194|
|         254|   -4.343778|   -6.494584|    0.823251|    0.012193|
|         255|   -4.346344|   -6.495952|    0.823295|    0.012193|
|         256|   -4.348834|   -6.497236|    0.823339|    0.012192|
|         257|   -4.351265|   -6.498434|    0.823381|    0.012191|
|         258|   -4.353740|   -6.499529|    0.823423|    0.012190|
|         259|   -4.356416|   -6.500500|    0.823463|    0.012189|
|         260|   -4.359462|   -6.501318|    0.823503|    0.012188|
|         261|   -4.363027|   -6.501948|    0.823541|    0.012187|
|         262|   -4.367223|   -6.502366|    0.823579|    0.012186|
|         263|   -4.372119|   -6.502532|    0.823616|    0.012184|
|         264|   -4.377747|   -6.502414|    0.823653|    0.012183|
|         265|   -4.384109|   -6.501999|    0.823689|    0.012182|
|         266|   -4.391188|   -6.501289|    0.823724|    0.012181|
|         267|   -4.398962|   -6.500303|    0.823759|    0.012180|
|         268|   -4.407404|   -6.499070|    0.823793|    0.012179|
|         269|   -4.416489|   -6.497640|    0.823827|    0.012177|
|         270|   -4.426191|   -6.496080|    0.823861|    0.012176|
|         271|   -4.436479|   -6.494474|    0.823895|    0.012175|
|         272|   -4.447313|   -6.492906|    0.823928|    0.012175|
|         273|   -4.458637|   -6.491453|    0.823961|    0.012174|
|         274|   -4.470373|   -6.490216|    0.823994|    0.012173|
|         275|   -4.482424|   -6.489292|    0.824027|    0.012172|
|         276|   -4.494664|   -6.488772|    0.824059|    0.012172|
|         277|   -4.506945|   -6.488737|    0.824091|    0.012172|
|         278|   -4.519096|   -6.489248|    0.824122|    0.012172|
|         279|   -4.530923|   -6.490352|    0.824153|    0.012172|
|         280|   -4.542223|   -6.492088|    0.824183|    0.012172|
|         281|   -4.552785|   -6.494466|    0.824213|    0.012172|
|         282|   -4.562403|   -6.497483|    0.824242|    0.012172|
|         283|   -4.570890|   -6.501118|    0.824271|    0.012173|
|         284|   -4.578087|   -6.505326|    0.824298|    0.012174|
|         285|   -4.583876|   -6.510035|    0.824324|    0.012175|
|         286|   -4.588193|   -6.515155|    0.824350|    0.012176|
|         287|   -4.591026|   -6.520580|    0.824374|    0.012177|
|         288|   -4.592420|   -6.526188|    0.824397|    0.012179|
|         289|   -4.592471|   -6.531847|    0.824419|    0.012180|
|         290|   -4.591313|   -6.537420|    0.824439|    0.012182|
|         291|   -4.589115|   -6.542770|    0.824459|    0.012184|
|         292|   -4.586058|   -6.547772|    0.824476|    0.012185|
|         293|   -4.582332|   -6.552318|    0.824492|    0.012187|
|         294|   -4.578121|   -6.556326|    0.824507|    0.012189|
|         295|   -4.573600|   -6.559744|    0.824520|    0.012191|
|         296|   -4.568928|   -6.562558|    0.824532|    0.012194|
|         297|   -4.564247|   -6.564787|    0.824542|    0.012196|
|         298|   -4.559676|   -6.566485|    0.824551|    0.012198|
|         299|   -4.555319|   -6.567735|    0.824558|    0.012200|
|         300|   -4.551260|   -6.568640|    0.824564|    0.012202|
|         301|   -4.547567|   -6.569318|    0.824569|    0.012163|
+-----------------------------------------------------------------------+
|Fixed CL Mode                           |Value                         |
+-----------------------------------------------------------------------+
|Current CL                              |0.824569                      |
|Target CL                               |0.824                         |
|Previous AOA                            |2.80054                       |
|Changed AoA by                          |-0.00281811                   |
+-----------------------------------------------------------------------+
+----------------------------------------------------------------+
|  Inner_Iter|    rms[Rho]|     rms[nu]|          CL|          CD|
+----------------------------------------------------------------+
|         302|   -2.743352|   -6.517409|    0.824572|    0.012165|
|         303|   -3.128896|   -6.543799|    0.824574|    0.012167|
|         304|   -3.377884|   -6.552255|    0.824575|    0.012169|
|         305|   -3.460597|   -6.557170|    0.824575|    0.012170|
|         306|   -3.515929|   -6.561026|    0.824574|    0.012172|
|         307|   -3.586613|   -6.564462|    0.824572|    0.012173|
|         308|   -3.673286|   -6.567693|    0.824569|    0.012174|
|         309|   -3.762135|   -6.570822|    0.824567|    0.012175|
|         310|   -3.835253|   -6.573888|    0.824563|    0.012176|
|         311|   -3.884529|   -6.576873|    0.824560|    0.012176|
|         312|   -3.913605|   -6.579744|    0.824556|    0.012177|
|         313|   -3.928359|   -6.582514|    0.824552|    0.012177|
|         314|   -3.933734|   -6.585206|    0.824549|    0.012177|
|         315|   -3.935449|   -6.587816|    0.824545|    0.012177|
|         316|   -3.939218|   -6.590289|    0.824543|    0.012177|
|         317|   -3.948592|   -6.592538|    0.824540|    0.012176|
|         318|   -3.964085|   -6.594488|    0.824538|    0.012176|
|         319|   -3.983704|   -6.596088|    0.824537|    0.012175|
|         320|   -4.004298|   -6.597316|    0.824536|    0.012174|
|         321|   -4.023259|   -6.598154|    0.824536|    0.012173|
|         322|   -4.039724|   -6.598615|    0.824537|    0.012172|
|         323|   -4.054497|   -6.598732|    0.824539|    0.012171|
|         324|   -4.068973|   -6.598554|    0.824542|    0.012169|
|         325|   -4.084104|   -6.598150|    0.824546|    0.012168|
|         326|   -4.100043|   -6.597610|    0.824550|    0.012166|
|         327|   -4.116331|   -6.597027|    0.824555|    0.012165|
|         328|   -4.132238|   -6.596510|    0.824561|    0.012163|
|         329|   -4.147027|   -6.596157|    0.824568|    0.012161|
|         330|   -4.160099|   -6.596052|    0.824575|    0.012160|
|         331|   -4.171102|   -6.596269|    0.824583|    0.012158|
|         332|   -4.180054|   -6.596872|    0.824591|    0.012156|
|         333|   -4.187392|   -6.597894|    0.824600|    0.012154|
|         334|   -4.193894|   -6.599369|    0.824609|    0.012152|
|         335|   -4.200469|   -6.601313|    0.824619|    0.012151|
|         336|   -4.207938|   -6.603716|    0.824628|    0.012149|
|         337|   -4.216865|   -6.606556|    0.824637|    0.012147|
|         338|   -4.227475|   -6.609793|    0.824646|    0.012145|
|         339|   -4.239640|   -6.613376|    0.824655|    0.012143|
|         340|   -4.252902|   -6.617242|    0.824663|    0.012141|
|         341|   -4.266555|   -6.621339|    0.824671|    0.012140|
|         342|   -4.279774|   -6.625600|    0.824679|    0.012138|
|         343|   -4.291818|   -6.629958|    0.824685|    0.012136|
|         344|   -4.302241|   -6.634351|    0.824691|    0.012134|
|         345|   -4.311025|   -6.638721|    0.824696|    0.012132|
|         346|   -4.318570|   -6.643016|    0.824700|    0.012131|
|         347|   -4.325549|   -6.647207|    0.824704|    0.012129|
|         348|   -4.332689|   -6.651244|    0.824706|    0.012127|
|         349|   -4.340584|   -6.655103|    0.824706|    0.012125|
|         350|   -4.349581|   -6.658766|    0.824706|    0.012123|
|         351|   -4.359741|   -6.662239|    0.824704|    0.012121|
|         352|   -4.370867|   -6.665536|    0.824702|    0.012119|
|         353|   -4.382577|   -6.668683|    0.824697|    0.012118|
|         354|   -4.394397|   -6.671702|    0.824692|    0.012116|
|         355|   -4.405867|   -6.674635|    0.824685|    0.012114|
|         356|   -4.416630|   -6.677488|    0.824677|    0.012111|
|         357|   -4.426492|   -6.680295|    0.824668|    0.012109|
|         358|   -4.435430|   -6.683096|    0.824658|    0.012107|
|         359|   -4.443565|   -6.685921|    0.824647|    0.012105|
|         360|   -4.451096|   -6.688801|    0.824634|    0.012103|
|         361|   -4.458242|   -6.691764|    0.824621|    0.012101|
|         362|   -4.465188|   -6.694829|    0.824607|    0.012099|
|         363|   -4.472064|   -6.697998|    0.824592|    0.012097|
|         364|   -4.478937|   -6.701265|    0.824577|    0.012094|
|         365|   -4.485827|   -6.704607|    0.824561|    0.012092|
|         366|   -4.492722|   -6.707996|    0.824545|    0.012090|
|         367|   -4.499603|   -6.711392|    0.824529|    0.012088|
|         368|   -4.506453|   -6.714744|    0.824513|    0.012086|
|         369|   -4.513271|   -6.717994|    0.824498|    0.012084|
|         370|   -4.520064|   -6.721077|    0.824483|    0.012082|
|         371|   -4.526854|   -6.723934|    0.824468|    0.012080|
|         372|   -4.533660|   -6.726504|    0.824454|    0.012078|
|         373|   -4.540505|   -6.728733|    0.824441|    0.012076|
|         374|   -4.547403|   -6.730573|    0.824429|    0.012075|
|         375|   -4.554361|   -6.731989|    0.824418|    0.012073|
|         376|   -4.561381|   -6.732955|    0.824408|    0.012072|
|         377|   -4.568462|   -6.733461|    0.824400|    0.012070|
|         378|   -4.575598|   -6.733517|    0.824393|    0.012069|
|         379|   -4.582788|   -6.733144|    0.824388|    0.012068|
|         380|   -4.590027|   -6.732383|    0.824384|    0.012067|
|         381|   -4.597314|   -6.731285|    0.824382|    0.012066|
|         382|   -4.604647|   -6.729913|    0.824382|    0.012065|
|         383|   -4.612027|   -6.728342|    0.824383|    0.012065|
|         384|   -4.619450|   -6.726648|    0.824385|    0.012064|
|         385|   -4.626915|   -6.724907|    0.824390|    0.012064|
|         386|   -4.634414|   -6.723193|    0.824396|    0.012063|
|         387|   -4.641940|   -6.721575|    0.824403|    0.012063|
|         388|   -4.649479|   -6.720118|    0.824411|    0.012063|
|         389|   -4.657018|   -6.718875|    0.824421|    0.012063|
|         390|   -4.664538|   -6.717895|    0.824432|    0.012063|
|         391|   -4.672019|   -6.717216|    0.824445|    0.012064|
|         392|   -4.679436|   -6.716868|    0.824458|    0.012064|
|         393|   -4.686761|   -6.716873|    0.824472|    0.012064|
|         394|   -4.693964|   -6.717245|    0.824487|    0.012065|
|         395|   -4.701012|   -6.717985|    0.824503|    0.012066|
|         396|   -4.707870|   -6.719093|    0.824519|    0.012066|
|         397|   -4.714501|   -6.720560|    0.824536|    0.012067|
|         398|   -4.720868|   -6.722366|    0.824553|    0.012068|
|         399|   -4.726934|   -6.724489|    0.824571|    0.012069|
|         400|   -4.732666|   -6.726899|    0.824589|    0.012070|
|         401|   -4.738032|   -6.729567|    0.824607|    0.012028|
+-----------------------------------------------------------------------+
|Fixed CL Mode                           |Value                         |
+-----------------------------------------------------------------------+
|Current CL                              |0.824607                      |
|Target CL                               |0.824                         |
|Previous AOA                            |2.79772                       |
|Changed AoA by                          |-0.00294258                   |
+-----------------------------------------------------------------------+
+----------------------------------------------------------------+
|  Inner_Iter|    rms[Rho]|     rms[nu]|          CL|          CD|
+----------------------------------------------------------------+
|         402|   -2.724522|   -6.623197|    0.824625|    0.012029|
|         403|   -3.107975|   -6.674381|    0.824643|    0.012030|
|         404|   -3.350111|   -6.693577|    0.824661|    0.012031|
|         405|   -3.428948|   -6.705841|    0.824679|    0.012033|
|         406|   -3.483315|   -6.715645|    0.824697|    0.012034|
|         407|   -3.553632|   -6.724072|    0.824715|    0.012035|
|         408|   -3.640446|   -6.731471|    0.824732|    0.012037|
|         409|   -3.731256|   -6.738054|    0.824750|    0.012038|
|         410|   -3.809743|   -6.743950|    0.824766|    0.012039|
|         411|   -3.867469|   -6.749185|    0.824783|    0.012041|
|         412|   -3.905831|   -6.753790|    0.824799|    0.012042|
|         413|   -3.928426|   -6.757915|    0.824814|    0.012044|
|         414|   -3.938923|   -6.761780|    0.824829|    0.012046|
|         415|   -3.943157|   -6.765546|    0.824844|    0.012047|
|         416|   -3.947875|   -6.769260|    0.824858|    0.012049|
|         417|   -3.957673|   -6.772903|    0.824871|    0.012050|
|         418|   -3.973698|   -6.776474|    0.824884|    0.012052|
|         419|   -3.994208|   -6.780012|    0.824896|    0.012054|
|         420|   -4.016083|   -6.783592|    0.824907|    0.012055|
|         421|   -4.036669|   -6.787268|    0.824918|    0.012057|
|         422|   -4.055098|   -6.791054|    0.824928|    0.012059|
|         423|   -4.072212|   -6.794921|    0.824937|    0.012060|
|         424|   -4.089404|   -6.798804|    0.824946|    0.012062|
|         425|   -4.107500|   -6.802648|    0.824954|    0.012063|
|         426|   -4.126381|   -6.806409|    0.824961|    0.012065|
|         427|   -4.145221|   -6.810051|    0.824967|    0.012067|
|         428|   -4.162934|   -6.813557|    0.824972|    0.012068|
|         429|   -4.178548|   -6.816904|    0.824977|    0.012069|
|         430|   -4.191408|   -6.820081|    0.824981|    0.012071|
|         431|   -4.201306|   -6.823118|    0.824984|    0.012072|
|         432|   -4.208553|   -6.826029|    0.824986|    0.012073|
|         433|   -4.213942|   -6.828832|    0.824987|    0.012074|
|         434|   -4.218571|   -6.831547|    0.824988|    0.012076|
|         435|   -4.223561|   -6.834187|    0.824988|    0.012077|
|         436|   -4.229810|   -6.836749|    0.824987|    0.012078|
|         437|   -4.237842|   -6.839244|    0.824985|    0.012078|
|         438|   -4.247760|   -6.841683|    0.824983|    0.012079|
|         439|   -4.259259|   -6.844069|    0.824980|    0.012080|
|         440|   -4.271678|   -6.846380|    0.824976|    0.012080|
|         441|   -4.284109|   -6.848673|    0.824971|    0.012081|
|         442|   -4.295576|   -6.850975|    0.824966|    0.012082|
|         443|   -4.305280|   -6.853307|    0.824960|    0.012082|
|         444|   -4.312846|   -6.855698|    0.824954|    0.012082|
|         445|   -4.318436|   -6.858181|    0.824946|    0.012082|
|         446|   -4.322679|   -6.860795|    0.824939|    0.012082|
|         447|   -4.326459|   -6.863577|    0.824930|    0.012083|
|         448|   -4.330650|   -6.866572|    0.824921|    0.012082|
|         449|   -4.335922|   -6.869784|    0.824911|    0.012082|
|         450|   -4.342643|   -6.873218|    0.824901|    0.012082|
|         451|   -4.350871|   -6.876897|    0.824890|    0.012082|
|         452|   -4.360403|   -6.880848|    0.824878|    0.012081|
|         453|   -4.370862|   -6.885102|    0.824866|    0.012081|
|         454|   -4.381799|   -6.889659|    0.824853|    0.012080|
|         455|   -4.392795|   -6.894560|    0.824839|    0.012079|
|         456|   -4.403541|   -6.899736|    0.824825|    0.012079|
|         457|   -4.413895|   -6.905179|    0.824810|    0.012078|
|         458|   -4.423877|   -6.910884|    0.824794|    0.012077|
|         459|   -4.433636|   -6.916840|    0.824777|    0.012076|
|         460|   -4.443393|   -6.923061|    0.824760|    0.012075|
|         461|   -4.453379|   -6.929560|    0.824743|    0.012073|
|         462|   -4.463789|   -6.936361|    0.824724|    0.012072|
|         463|   -4.474757|   -6.943492|    0.824706|    0.012071|
|         464|   -4.486353|   -6.950935|    0.824687|    0.012069|
|         465|   -4.498589|   -6.958708|    0.824667|    0.012068|
|         466|   -4.511443|   -6.966833|    0.824648|    0.012066|
|         467|   -4.524873|   -6.975331|    0.824628|    0.012064|
|         468|   -4.538835|   -6.984204|    0.824609|    0.012063|
|         469|   -4.553292|   -6.993459|    0.824589|    0.012061|
|         470|   -4.568213|   -7.003114|    0.824570|    0.012059|
|         471|   -4.583572|   -7.013178|    0.824551|    0.012057|
|         472|   -4.599339|   -7.023639|    0.824533|    0.012055|
|         473|   -4.615469|   -7.034456|    0.824515|    0.012054|
|         474|   -4.631896|   -7.045559|    0.824498|    0.012052|
|         475|   -4.648530|   -7.056847|    0.824482|    0.012050|
|         476|   -4.665250|   -7.068173|    0.824468|    0.012048|
|         477|   -4.681908|   -7.079348|    0.824454|    0.012046|
|         478|   -4.698332|   -7.090146|    0.824442|    0.012044|
|         479|   -4.714334|   -7.100299|    0.824431|    0.012042|
|         480|   -4.729716|   -7.109506|    0.824421|    0.012040|
|         481|   -4.744281|   -7.117451|    0.824413|    0.012039|
|         482|   -4.757845|   -7.123823|    0.824407|    0.012037|
|         483|   -4.770244|   -7.128360|    0.824403|    0.012035|
|         484|   -4.781351|   -7.130874|    0.824400|    0.012033|
|         485|   -4.791080|   -7.131314|    0.824398|    0.012032|
|         486|   -4.799394|   -7.129764|    0.824399|    0.012030|
|         487|   -4.806309|   -7.126402|    0.824401|    0.012028|
|         488|   -4.811889|   -7.121515|    0.824405|    0.012027|
|         489|   -4.816244|   -7.115479|    0.824410|    0.012025|
|         490|   -4.819516|   -7.108687|    0.824417|    0.012023|
|         491|   -4.821869|   -7.101552|    0.824426|    0.012022|
|         492|   -4.823481|   -7.094472|    0.824436|    0.012020|
|         493|   -4.824524|   -7.087808|    0.824448|    0.012019|
|         494|   -4.825167|   -7.081864|    0.824460|    0.012017|
|         495|   -4.825561|   -7.076919|    0.824474|    0.012016|
|         496|   -4.825839|   -7.073204|    0.824489|    0.012015|
|         497|   -4.826114|   -7.070905|    0.824505|    0.012013|
|         498|   -4.826478|   -7.070178|    0.824523|    0.012012|
|         499|   -4.827005|   -7.071147|    0.824540|    0.012011|
|         500|   -4.827749|   -7.073908|    0.824559|    0.012010|
|         501|   -4.828748|   -7.078530|    0.824579|    0.011969|
+-----------------------------------------------------------------------+
|Fixed CL Mode                           |Value                         |
+-----------------------------------------------------------------------+
|Current CL                              |0.824579                      |
|Target CL                               |0.824                         |
|Previous AOA                            |2.79478                       |
|Changed AoA by                          |-0.0027952                    |
+-----------------------------------------------------------------------+
+----------------------------------------------------------------+
|  Inner_Iter|    rms[Rho]|     rms[nu]|          CL|          CD|
+----------------------------------------------------------------+
|         502|   -2.746881|   -6.782295|    0.824599|    0.011968|
|         503|   -3.130188|   -6.888861|    0.824619|    0.011967|
|         504|   -3.371183|   -6.936419|    0.824639|    0.011966|
|         505|   -3.448910|   -6.970256|    0.824660|    0.011965|
|         506|   -3.502726|   -7.000198|    0.824681|    0.011965|
|         507|   -3.572729|   -7.028621|    0.824702|    0.011964|
|         508|   -3.659422|   -7.056045|    0.824723|    0.011964|
|         509|   -3.750575|   -7.082569|    0.824743|    0.011963|
|         510|   -3.830235|   -7.107926|    0.824764|    0.011963|
|         511|   -3.889928|   -7.131210|    0.824784|    0.011963|
|         512|   -3.930544|   -7.151324|    0.824803|    0.011963|
|         513|   -3.955093|   -7.167791|    0.824822|    0.011963|
|         514|   -3.966860|   -7.180776|    0.824841|    0.011963|
|         515|   -3.971679|   -7.190421|    0.824859|    0.011963|
|         516|   -3.976571|   -7.196450|    0.824876|    0.011963|
|         517|   -3.986420|   -7.198411|    0.824892|    0.011964|
|         518|   -4.002547|   -7.196290|    0.824907|    0.011964|
|         519|   -4.023283|   -7.190665|    0.824921|    0.011965|
|         520|   -4.045512|   -7.182473|    0.824935|    0.011966|
|         521|   -4.066564|   -7.172618|    0.824947|    0.011966|
|         522|   -4.085552|   -7.161726|    0.824958|    0.011967|
|         523|   -4.103316|   -7.150168|    0.824969|    0.011968|
|         524|   -4.121243|   -7.138182|    0.824978|    0.011969|
|         525|   -4.140128|   -7.125971|    0.824986|    0.011970|
|         526|   -4.159784|   -7.113774|    0.824993|    0.011971|
|         527|   -4.179293|   -7.101805|    0.824999|    0.011972|
|         528|   -4.197484|   -7.090266|    0.825003|    0.011973|
|         529|   -4.213334|   -7.079272|    0.825007|    0.011974|
|         530|   -4.226194|   -7.069007|    0.825009|    0.011975|
|         531|   -4.235917|   -7.059557|    0.825011|    0.011977|
|         532|   -4.242911|   -7.050981|    0.825011|    0.011978|
|         533|   -4.248073|   -7.043278|    0.825011|    0.011979|
|         534|   -4.252589|   -7.036412|    0.825009|    0.011981|
|         535|   -4.257633|   -7.030308|    0.825006|    0.011982|
|         536|   -4.264124|   -7.024869|    0.825003|    0.011983|
|         537|   -4.272579|   -7.019990|    0.824999|    0.011985|
|         538|   -4.283071|   -7.015554|    0.824993|    0.011986|
|         539|   -4.295245|   -7.011461|    0.824987|    0.011988|
|         540|   -4.308372|   -7.007599|    0.824980|    0.011989|
|         541|   -4.321456|   -7.003872|    0.824972|    0.011990|
|         542|   -4.333427|   -7.000226|    0.824964|    0.011992|
|         543|   -4.343414|   -6.996612|    0.824955|    0.011993|
|         544|   -4.351006|   -6.993005|    0.824945|    0.011995|
|         545|   -4.356391|   -6.989400|    0.824934|    0.011996|
|         546|   -4.360267|   -6.985807|    0.824923|    0.011998|
|         547|   -4.363604|   -6.982232|    0.824911|    0.011999|
|         548|   -4.367353|   -6.978720|    0.824899|    0.012001|
|         549|   -4.372237|   -6.975252|    0.824886|    0.012002|
|         550|   -4.378647|   -6.971809|    0.824872|    0.012003|
|         551|   -4.386642|   -6.968403|    0.824857|    0.012005|
|         552|   -4.396002|   -6.965052|    0.824842|    0.012006|
|         553|   -4.406323|   -6.961795|    0.824826|    0.012007|
|         554|   -4.417124|   -6.958626|    0.824809|    0.012009|
|         555|   -4.427957|   -6.955561|    0.824792|    0.012010|
|         556|   -4.438497|   -6.952558|    0.824774|    0.012011|
|         557|   -4.448589|   -6.949570|    0.824755|    0.012012|
|         558|   -4.458257|   -6.946585|    0.824736|    0.012013|
|         559|   -4.467660|   -6.943606|    0.824716|    0.012014|
|         560|   -4.477034|   -6.940638|    0.824695|    0.012015|
|         561|   -4.486623|   -6.937711|    0.824673|    0.012016|
|         562|   -4.496633|   -6.934860|    0.824651|    0.012017|
|         563|   -4.507206|   -6.932153|    0.824628|    0.012018|
|         564|   -4.518414|   -6.929573|    0.824605|    0.012019|
|         565|   -4.530273|   -6.927179|    0.824582|    0.012020|
|         566|   -4.542764|   -6.925033|    0.824558|    0.012020|
|         567|   -4.555851|   -6.923203|    0.824534|    0.012021|
|         568|   -4.569496|   -6.921744|    0.824509|    0.012022|
|         569|   -4.583673|   -6.920710|    0.824485|    0.012022|
|         570|   -4.598368|   -6.920152|    0.824461|    0.012023|
|         571|   -4.613573|   -6.920113|    0.824437|    0.012023|
|         572|   -4.629278|   -6.920621|    0.824414|    0.012024|
|         573|   -4.645466|   -6.921686|    0.824391|    0.012024|
|         574|   -4.662097|   -6.923295|    0.824369|    0.012024|
|         575|   -4.679109|   -6.925414|    0.824347|    0.012025|
|         576|   -4.696411|   -6.927988|    0.824327|    0.012025|
|         577|   -4.713882|   -6.930941|    0.824307|    0.012025|
|         578|   -4.731376|   -6.934171|    0.824289|    0.012025|
|         579|   -4.748719|   -6.937558|    0.824272|    0.012026|
|         580|   -4.765722|   -6.940963|    0.824256|    0.012026|
|         581|   -4.782179|   -6.944237|    0.824242|    0.012026|
|         582|   -4.797881|   -6.947224|    0.824230|    0.012026|
|         583|   -4.812626|   -6.949756|    0.824219|    0.012026|
|         584|   -4.826226|   -6.951693|    0.824209|    0.012026|
|         585|   -4.838522|   -6.952922|    0.824201|    0.012026|
|         586|   -4.849398|   -6.953363|    0.824195|    0.012026|
|         587|   -4.858787|   -6.952981|    0.824191|    0.012026|
|         588|   -4.866675|   -6.951784|    0.824188|    0.012026|
|         589|   -4.873110|   -6.949827|    0.824187|    0.012026|
|         590|   -4.878186|   -6.947210|    0.824187|    0.012025|
|         591|   -4.882040|   -6.944061|    0.824189|    0.012025|
|         592|   -4.884840|   -6.940538|    0.824193|    0.012025|
|         593|   -4.886768|   -6.936808|    0.824198|    0.012025|
|         594|   -4.888010|   -6.933046|    0.824204|    0.012024|
|         595|   -4.888745|   -6.929417|    0.824212|    0.012024|
|         596|   -4.889141|   -6.926074|    0.824221|    0.012024|
|         597|   -4.889344|   -6.923149|    0.824231|    0.012023|
|         598|   -4.889482|   -6.920752|    0.824242|    0.012023|
|         599|   -4.889659|   -6.918966|    0.824254|    0.012022|
|         600|   -4.889963|   -6.917849|    0.824267|    0.012022|
|         601|   -4.890460|   -6.917430|    0.824281|    0.012002|
+-----------------------------------------------------------------------+
|Fixed CL Mode                           |Value                         |
+-----------------------------------------------------------------------+
|Current CL                              |0.824281                      |
|Target CL                               |0.824                         |
|Previous AOA                            |2.79198                       |
|Changed AoA by                          |-0.00133264                   |
+-----------------------------------------------------------------------+
+----------------------------------------------------------------+
|  Inner_Iter|    rms[Rho]|     rms[nu]|          CL|          CD|
+----------------------------------------------------------------+
|         602|   -3.068549|   -6.856370|    0.824295|    0.012002|
|         603|   -3.450903|   -6.885405|    0.824310|    0.012001|
|         604|   -3.688383|   -6.895943|    0.824325|    0.012001|
|         605|   -3.763620|   -6.903096|    0.824341|    0.012000|
|         606|   -3.816212|   -6.909259|    0.824358|    0.012000|
|         607|   -3.885088|   -6.914914|    0.824374|    0.011999|
|         608|   -3.970477|   -6.920142|    0.824391|    0.011999|
|         609|   -4.060607|   -6.924928|    0.824407|    0.011998|
|         610|   -4.140518|   -6.929195|    0.824424|    0.011998|
|         611|   -4.202281|   -6.932797|    0.824440|    0.011997|
|         612|   -4.246284|   -6.935586|    0.824457|    0.011997|
|         613|   -4.274525|   -6.937483|    0.824473|    0.011997|
|         614|   -4.289330|   -6.938464|    0.824488|    0.011996|
|         615|   -4.296062|   -6.938513|    0.824503|    0.011996|
|         616|   -4.301864|   -6.937608|    0.824518|    0.011995|
|         617|   -4.311998|   -6.935746|    0.824532|    0.011995|
|         618|   -4.328136|   -6.932979|    0.824546|    0.011995|
|         619|   -4.348874|   -6.929415|    0.824558|    0.011995|
|         620|   -4.371310|   -6.925208|    0.824570|    0.011994|
|         621|   -4.392939|   -6.920527|    0.824582|    0.011994|
|         622|   -4.412959|   -6.915531|    0.824592|    0.011994|
|         623|   -4.432196|   -6.910357|    0.824602|    0.011994|
|         624|   -4.451936|   -6.905130|    0.824611|    0.011994|
|         625|   -4.472809|   -6.899972|    0.824618|    0.011994|
|         626|   -4.494395|   -6.894991|    0.824626|    0.011993|
|         627|   -4.515497|   -6.890290|    0.824632|    0.011993|
|         628|   -4.534686|   -6.885957|    0.824637|    0.011993|
|         629|   -4.550781|   -6.882066|    0.824642|    0.011993|
|         630|   -4.563154|   -6.878675|    0.824645|    0.011993|
|         631|   -4.571844|   -6.875824|    0.824648|    0.011993|
|         632|   -4.577543|   -6.873535|    0.824650|    0.011993|
|         633|   -4.581431|   -6.871819|    0.824651|    0.011993|
|         634|   -4.584885|   -6.870663|    0.824652|    0.011993|
|         635|   -4.589156|   -6.870041|    0.824652|    0.011993|
|         636|   -4.595138|   -6.869913|    0.824651|    0.011993|
|         637|   -4.603252|   -6.870230|    0.824650|    0.011993|
|         638|   -4.613432|   -6.870937|    0.824648|    0.011993|
|         639|   -4.625166|   -6.871972|    0.824645|    0.011993|
|         640|   -4.637565|   -6.873269|    0.824643|    0.011993|
|         641|   -4.649498|   -6.874768|    0.824639|    0.011993|
|         642|   -4.659820|   -6.876411|    0.824635|    0.011994|
|         643|   -4.667670|   -6.878142|    0.824631|    0.011994|
|         644|   -4.672738|   -6.879899|    0.824627|    0.011994|
|         645|   -4.675357|   -6.881641|    0.824622|    0.011994|
|         646|   -4.676365|   -6.883339|    0.824617|    0.011994|
|         647|   -4.676818|   -6.884962|    0.824612|    0.011995|
|         648|   -4.677686|   -6.886487|    0.824607|    0.011995|
|         649|   -4.679664|   -6.887901|    0.824601|    0.011995|
|         650|   -4.683092|   -6.889195|    0.824595|    0.011996|
|         651|   -4.687984|   -6.890363|    0.824589|    0.011996|
|         652|   -4.694095|   -6.891409|    0.824583|    0.011997|
|         653|   -4.701030|   -6.892345|    0.824576|    0.011997|
|         654|   -4.708351|   -6.893178|    0.824570|    0.011998|
|         655|   -4.715678|   -6.893906|    0.824563|    0.011998|
|         656|   -4.722762|   -6.894542|    0.824556|    0.011999|
|         657|   -4.729516|   -6.895090|    0.824549|    0.011999|
|         658|   -4.736001|   -6.895561|    0.824541|    0.012000|
|         659|   -4.742388|   -6.895979|    0.824533|    0.012000|
|         660|   -4.748894|   -6.896321|    0.824525|    0.012001|
|         661|   -4.755732|   -6.896604|    0.824517|    0.012002|
|         662|   -4.763072|   -6.896840|    0.824509|    0.012002|
|         663|   -4.771026|   -6.897037|    0.824500|    0.012003|
|         664|   -4.779650|   -6.897210|    0.824491|    0.012004|
|         665|   -4.788956|   -6.897371|    0.824482|    0.012004|
|         666|   -4.798927|   -6.897539|    0.824473|    0.012005|
|         667|   -4.809541|   -6.897735|    0.824464|    0.012006|
|         668|   -4.820778|   -6.897988|    0.824454|    0.012006|
|         669|   -4.832626|   -6.898331|    0.824444|    0.012007|
|         670|   -4.845089|   -6.898796|    0.824435|    0.012008|
|         671|   -4.858174|   -6.899417|    0.824425|    0.012008|
|         672|   -4.871891|   -6.900226|    0.824416|    0.012009|
|         673|   -4.886245|   -6.901252|    0.824406|    0.012010|
|         674|   -4.901226|   -6.902517|    0.824397|    0.012011|
|         675|   -4.916810|   -6.904038|    0.824388|    0.012011|
|         676|   -4.932951|   -6.905823|    0.824379|    0.012012|
|         677|   -4.949585|   -6.907869|    0.824371|    0.012013|
|         678|   -4.966624|   -6.910163|    0.824363|    0.012013|
|         679|   -4.983960|   -6.912689|    0.824355|    0.012014|
|         680|   -5.001464|   -6.915409|    0.824348|    0.012014|
|         681|   -5.018985|   -6.918277|    0.824341|    0.012015|
|         682|   -5.036353|   -6.921240|    0.824335|    0.012016|
|         683|   -5.053380|   -6.924236|    0.824330|    0.012016|
|         684|   -5.069864|   -6.927203|    0.824325|    0.012017|
|         685|   -5.085598|   -6.930076|    0.824321|    0.012017|
|         686|   -5.100371|   -6.932783|    0.824317|    0.012018|
|         687|   -5.113989|   -6.935262|    0.824314|    0.012018|
|         688|   -5.126279|   -6.937460|    0.824312|    0.012019|
|         689|   -5.137106|   -6.939338|    0.824310|    0.012019|
|         690|   -5.146380|   -6.940874|    0.824309|    0.012019|
|         691|   -5.154063|   -6.942061|    0.824309|    0.012020|
|         692|   -5.160175|   -6.942912|    0.824309|    0.012020|
|         693|   -5.164783|   -6.943455|    0.824310|    0.012020|
|         694|   -5.168000|   -6.943736|    0.824312|    0.012020|
|         695|   -5.169971|   -6.943812|    0.824314|    0.012021|
|         696|   -5.170866|   -6.943751|    0.824317|    0.012021|
|         697|   -5.170861|   -6.943628|    0.824320|    0.012021|
|         698|   -5.170137|   -6.943517|    0.824324|    0.012021|
|         699|   -5.168867|   -6.943495|    0.824328|    0.012021|
|         700|   -5.167212|   -6.943631|    0.824333|    0.012021|
|         701|   -5.165319|   -6.943987|    0.824338|    0.011997|
+-----------------------------------------------------------------------+
|Fixed CL Mode                           |Value                         |
+-----------------------------------------------------------------------+
|Current CL                              |0.824338                      |
|Target CL                               |0.824                         |
|Previous AOA                            |2.79065                       |
|Changed AoA by                          |-0.00166318                   |
+-----------------------------------------------------------------------+
+----------------------------------------------------------------+
|  Inner_Iter|    rms[Rho]|     rms[nu]|          CL|          CD|
+----------------------------------------------------------------+
|         702|   -2.972448|   -6.847856|    0.824343|    0.011997|
|         703|   -3.356376|   -6.891991|    0.824349|    0.011997|
|         704|   -3.598294|   -6.907451|    0.824355|    0.011997|
|         705|   -3.675670|   -6.917041|    0.824361|    0.011997|
|         706|   -3.728820|   -6.924744|    0.824368|    0.011997|
|         707|   -3.798276|   -6.931514|    0.824374|    0.011997|
|         708|   -3.884553|   -6.937655|    0.824381|    0.011997|
|         709|   -3.975429|   -6.943344|    0.824388|    0.011997|
|         710|   -4.055014|   -6.948670|    0.824394|    0.011997|
|         711|   -4.114858|   -6.953627|    0.824401|    0.011997|
|         712|   -4.155785|   -6.958196|    0.824408|    0.011997|
|         713|   -4.180710|   -6.962452|    0.824414|    0.011997|
|         714|   -4.192832|   -6.966524|    0.824420|    0.011997|
|         715|   -4.197936|   -6.970490|    0.824426|    0.011997|
|         716|   -4.203051|   -6.974345|    0.824432|    0.011997|
|         717|   -4.213094|   -6.978030|    0.824438|    0.011997|
|         718|   -4.229419|   -6.981500|    0.824443|    0.011997|
|         719|   -4.250372|   -6.984751|    0.824448|    0.011997|
|         720|   -4.272839|   -6.987815|    0.824452|    0.011997|
|         721|   -4.294143|   -6.990720|    0.824456|    0.011997|
|         722|   -4.313395|   -6.993470|    0.824460|    0.011997|
|         723|   -4.331447|   -6.996049|    0.824463|    0.011997|
|         724|   -4.349703|   -6.998430|    0.824466|    0.011997|
|         725|   -4.368966|   -7.000593|    0.824469|    0.011997|
|         726|   -4.389042|   -7.002540|    0.824471|    0.011997|
|         727|   -4.408984|   -7.004293|    0.824472|    0.011997|
|         728|   -4.427583|   -7.005888|    0.824474|    0.011997|
|         729|   -4.443775|   -7.007374|    0.824474|    0.011997|
|         730|   -4.456892|   -7.008801|    0.824475|    0.011997|
|         731|   -4.466792|   -7.010219|    0.824475|    0.011997|
|         732|   -4.473920|   -7.011655|    0.824474|    0.011997|
|         733|   -4.479231|   -7.013175|    0.824473|    0.011997|
|         734|   -4.483976|   -7.014815|    0.824472|    0.011997|
|         735|   -4.489388|   -7.016581|    0.824470|    0.011997|
|         736|   -4.496433|   -7.018458|    0.824468|    0.011997|
|         737|   -4.505660|   -7.020427|    0.824466|    0.011997|
|         738|   -4.517162|   -7.022461|    0.824463|    0.011997|
|         739|   -4.530582|   -7.024525|    0.824460|    0.011997|
|         740|   -4.545162|   -7.026580|    0.824457|    0.011997|
|         741|   -4.559840|   -7.028596|    0.824453|    0.011997|
|         742|   -4.573443|   -7.030540|    0.824449|    0.011997|
|         743|   -4.584978|   -7.032411|    0.824444|    0.011997|
|         744|   -4.593929|   -7.034143|    0.824439|    0.011997|
|         745|   -4.600430|   -7.035724|    0.824434|    0.011997|
|         746|   -4.605199|   -7.037146|    0.824429|    0.011997|
|         747|   -4.609278|   -7.038403|    0.824423|    0.011997|
|         748|   -4.613707|   -7.039485|    0.824417|    0.011996|
|         749|   -4.619294|   -7.040392|    0.824411|    0.011996|
|         750|   -4.626485|   -7.041136|    0.824404|    0.011996|
|         751|   -4.635364|   -7.041718|    0.824397|    0.011996|
|         752|   -4.645700|   -7.042127|    0.824390|    0.011996|
|         753|   -4.657054|   -7.042383|    0.824382|    0.011996|
|         754|   -4.668888|   -7.042516|    0.824373|    0.011996|
|         755|   -4.680691|   -7.042510|    0.824365|    0.011996|
|         756|   -4.692081|   -7.042373|    0.824356|    0.011996|
|         757|   -4.702869|   -7.042108|    0.824346|    0.011996|
|         758|   -4.713066|   -7.041739|    0.824336|    0.011995|
|         759|   -4.722843|   -7.041324|    0.824325|    0.011995|
|         760|   -4.732464|   -7.040871|    0.824315|    0.011995|
|         761|   -4.742204|   -7.040405|    0.824303|    0.011995|
|         762|   -4.752298|   -7.039977|    0.824292|    0.011995|
|         763|   -4.762907|   -7.039634|    0.824280|    0.011995|
|         764|   -4.774114|   -7.039422|    0.824268|    0.011995|
|         765|   -4.785937|   -7.039389|    0.824255|    0.011994|
|         766|   -4.798354|   -7.039578|    0.824242|    0.011994|
|         767|   -4.811323|   -7.040035|    0.824230|    0.011994|
|         768|   -4.824805|   -7.040814|    0.824217|    0.011994|
|         769|   -4.838775|   -7.041956|    0.824204|    0.011994|
|         770|   -4.853223|   -7.043502|    0.824191|    0.011994|
|         771|   -4.868150|   -7.045480|    0.824178|    0.011994|
|         772|   -4.883562|   -7.047912|    0.824166|    0.011994|
|         773|   -4.899454|   -7.050800|    0.824154|    0.011994|
|         774|   -4.915808|   -7.054135|    0.824142|    0.011994|
|         775|   -4.932582|   -7.057892|    0.824130|    0.011994|
|         776|   -4.949706|   -7.062022|    0.824120|    0.011994|
|         777|   -4.967087|   -7.066460|    0.824110|    0.011994|
|         778|   -4.984604|   -7.071123|    0.824100|    0.011995|
|         779|   -5.002113|   -7.075908|    0.824091|    0.011995|
|         780|   -5.019454|   -7.080704|    0.824083|    0.011995|
|         781|   -5.036448|   -7.085398|    0.824076|    0.011995|
|         782|   -5.052910|   -7.089854|    0.824070|    0.011996|
|         783|   -5.068651|   -7.093944|    0.824065|    0.011996|
|         784|   -5.083487|   -7.097556|    0.824060|    0.011996|
|         785|   -5.097249|   -7.100600|    0.824057|    0.011997|
|         786|   -5.109794|   -7.103008|    0.824054|    0.011997|
|         787|   -5.121015|   -7.104733|    0.824053|    0.011997|
|         788|   -5.130847|   -7.105774|    0.824052|    0.011998|
|         789|   -5.139276|   -7.106163|    0.824052|    0.011998|
|         790|   -5.146335|   -7.105975|    0.824053|    0.011999|
|         791|   -5.152102|   -7.105306|    0.824055|    0.011999|
|         792|   -5.156692|   -7.104277|    0.824058|    0.012000|
|         793|   -5.160244|   -7.103021|    0.824061|    0.012000|
|         794|   -5.162913|   -7.101678|    0.824065|    0.012001|
|         795|   -5.164855|   -7.100385|    0.824070|    0.012001|
|         796|   -5.166224|   -7.099273|    0.824075|    0.012002|
|         797|   -5.167159|   -7.098459|    0.824081|    0.012002|
|         798|   -5.167785|   -7.098043|    0.824087|    0.012003|
|         799|   -5.168210|   -7.098109|    0.824094|    0.012003|
|         800|   -5.168523|   -7.098716|    0.824102|    0.012004|
|         801|   -5.168795|   -7.099906|    0.824109|    0.011997|
+-----------------------------------------------------------------------+
|Fixed CL Mode                           |Value                         |
+-----------------------------------------------------------------------+
|Current CL                              |0.824109                      |
|Target CL                               |0.824                         |
|Previous AOA                            |2.78899                       |
|Changed AoA by                          |-0.000508104                  |
+-----------------------------------------------------------------------+
+----------------------------------------------------------------+
|  Inner_Iter|    rms[Rho]|     rms[nu]|          CL|          CD|
+----------------------------------------------------------------+
|         802|   -3.487348|   -7.078896|    0.824117|    0.011997|
|         803|   -3.869738|   -7.092163|    0.824125|    0.011998|
|         804|   -4.106470|   -7.098420|    0.824134|    0.011998|
|         805|   -4.180369|   -7.103735|    0.824142|    0.011999|
|         806|   -4.231698|   -7.108983|    0.824151|    0.011999|
|         807|   -4.299168|   -7.114301|    0.824159|    0.011999|
|         808|   -4.382775|   -7.119670|    0.824168|    0.012000|
|         809|   -4.470789|   -7.125031|    0.824176|    0.012000|
|         810|   -4.548749|   -7.130298|    0.824184|    0.012001|
|         811|   -4.609302|   -7.135353|    0.824193|    0.012001|
|         812|   -4.652990|   -7.140077|    0.824201|    0.012002|
|         813|   -4.681654|   -7.144375|    0.824208|    0.012002|
|         814|   -4.697292|   -7.148173|    0.824216|    0.012002|
|         815|   -4.704811|   -7.151410|    0.824223|    0.012003|
|         816|   -4.710991|   -7.154032|    0.824229|    0.012003|
|         817|   -4.720959|   -7.156001|    0.824236|    0.012003|
|         818|   -4.736433|   -7.157312|    0.824242|    0.012004|
|         819|   -4.756176|   -7.157996|    0.824247|    0.012004|
|         820|   -4.777543|   -7.158120|    0.824252|    0.012004|
|         821|   -4.798285|   -7.157770|    0.824257|    0.012004|
|         822|   -4.817745|   -7.157044|    0.824261|    0.012005|
|         823|   -4.836717|   -7.156044|    0.824264|    0.012005|
|         824|   -4.856350|   -7.154874|    0.824267|    0.012005|
|         825|   -4.877104|   -7.153641|    0.824270|    0.012005|
|         826|   -4.898424|   -7.152447|    0.824271|    0.012005|
|         827|   -4.919012|   -7.151396|    0.824273|    0.012006|
|         828|   -4.937392|   -7.150579|    0.824274|    0.012006|
|         829|   -4.952410|   -7.150081|    0.824274|    0.012006|
|         830|   -4.963543|   -7.149972|    0.824274|    0.012006|
|         831|   -4.970986|   -7.150304|    0.824274|    0.012006|
|         832|   -4.975581|   -7.151112|    0.824273|    0.012006|
|         833|   -4.978588|   -7.152421|    0.824271|    0.012006|
|         834|   -4.981386|   -7.154237|    0.824270|    0.012006|
|         835|   -4.985167|   -7.156552|    0.824268|    0.012006|
|         836|   -4.990734|   -7.159344|    0.824265|    0.012006|
|         837|   -4.998424|   -7.162582|    0.824262|    0.012006|
|         838|   -5.008108|   -7.166221|    0.824259|    0.012006|
|         839|   -5.019242|   -7.170211|    0.824256|    0.012006|
|         840|   -5.030949|   -7.174495|    0.824253|    0.012005|
|         841|   -5.042155|   -7.179016|    0.824249|    0.012005|
|         842|   -5.051810|   -7.183712|    0.824245|    0.012005|
|         843|   -5.059145|   -7.188525|    0.824241|    0.012005|
|         844|   -5.063907|   -7.193397|    0.824237|    0.012005|
|         845|   -5.066421|   -7.198277|    0.824233|    0.012005|
|         846|   -5.067457|   -7.203118|    0.824229|    0.012005|
|         847|   -5.067970|   -7.207880|    0.824225|    0.012005|
|         848|   -5.068831|   -7.212529|    0.824221|    0.012005|
|         849|   -5.070662|   -7.217039|    0.824217|    0.012005|
|         850|   -5.073762|   -7.221388|    0.824213|    0.012004|
|         851|   -5.078133|   -7.225562|    0.824209|    0.012004|
|         852|   -5.083546|   -7.229547|    0.824205|    0.012004|
|         853|   -5.089640|   -7.233336|    0.824201|    0.012004|
|         854|   -5.096023|   -7.236923|    0.824197|    0.012004|
|         855|   -5.102359|   -7.240305|    0.824193|    0.012004|
|         856|   -5.108434|   -7.243461|    0.824189|    0.012004|
|         857|   -5.114176|   -7.246375|    0.824185|    0.012004|
|         858|   -5.119646|   -7.249023|    0.824181|    0.012004|
|         859|   -5.124993|   -7.251384|    0.824178|    0.012005|
|         860|   -5.130404|   -7.253431|    0.824174|    0.012005|
|         861|   -5.136057|   -7.255142|    0.824170|    0.012005|
|         862|   -5.142089|   -7.256496|    0.824167|    0.012005|
|         863|   -5.148583|   -7.257477|    0.824163|    0.012005|
|         864|   -5.155569|   -7.258081|    0.824159|    0.012005|
|         865|   -5.163040|   -7.258311|    0.824156|    0.012005|
|         866|   -5.170963|   -7.258183|    0.824152|    0.012006|
|         867|   -5.179294|   -7.257728|    0.824149|    0.012006|
|         868|   -5.187992|   -7.256986|    0.824145|    0.012006|
|         869|   -5.197021|   -7.256013|    0.824142|    0.012006|
|         870|   -5.206349|   -7.254870|    0.824138|    0.012006|
|         871|   -5.215949|   -7.253628|    0.824135|    0.012007|
|         872|   -5.225787|   -7.252358|    0.824131|    0.012007|
|         873|   -5.235821|   -7.251139|    0.824128|    0.012007|
|         874|   -5.245995|   -7.250041|    0.824125|    0.012008|
|         875|   -5.256238|   -7.249126|    0.824122|    0.012008|
|         876|   -5.266461|   -7.248451|    0.824119|    0.012008|
|         877|   -5.276563|   -7.248062|    0.824116|    0.012008|
|         878|   -5.286431|   -7.247993|    0.824113|    0.012009|
|         879|   -5.295945|   -7.248264|    0.824110|    0.012009|
|         880|   -5.304983|   -7.248883|    0.824108|    0.012009|
|         881|   -5.313429|   -7.249842|    0.824106|    0.012010|
|         882|   -5.321173|   -7.251122|    0.824103|    0.012010|
|         883|   -5.328119|   -7.252687|    0.824102|    0.012010|
|         884|   -5.334193|   -7.254493|    0.824100|    0.012010|
|         885|   -5.339341|   -7.256483|    0.824098|    0.012011|
|         886|   -5.343536|   -7.258594|    0.824097|    0.012011|
|         887|   -5.346779|   -7.260759|    0.824096|    0.012011|
|         888|   -5.349098|   -7.262906|    0.824095|    0.012012|
|         889|   -5.350545|   -7.264969|    0.824095|    0.012012|
|         890|   -5.351194|   -7.266886|    0.824095|    0.012012|
|         891|   -5.351135|   -7.268604|    0.824095|    0.012012|
|         892|   -5.350471|   -7.270083|    0.824095|    0.012013|
|         893|   -5.349308|   -7.271298|    0.824095|    0.012013|
|         894|   -5.347759|   -7.272241|    0.824096|    0.012013|
|         895|   -5.345929|   -7.272919|    0.824097|    0.012013|
|         896|   -5.343924|   -7.273356|    0.824098|    0.012014|
|         897|   -5.341837|   -7.273587|    0.824099|    0.012014|
|         898|   -5.339758|   -7.273662|    0.824101|    0.012014|
|         899|   -5.337765|   -7.273634|    0.824102|    0.012014|
|         900|   -5.335928|   -7.273561|    0.824104|    0.012014|
|         901|   -5.334307|   -7.273502|    0.824106|    0.012007|
+-----------------------------------------------------------------------+
|Fixed CL Mode                           |Value                         |
+-----------------------------------------------------------------------+
|Current CL                              |0.824106                      |
|Target CL                               |0.824                         |
|Previous AOA                            |2.78848                       |
[...]
|        5298|   -6.038777|   -7.940777|    0.824239|    0.012017|
|        5299|   -6.045504|   -7.944471|    0.824239|    0.012017|
|        5300|   -6.051831|   -7.948216|    0.824239|    0.012017|
|        5301|   -6.057718|   -7.952027|    0.824239|    0.012017|
|        5302|   -6.063139|   -7.955918|    0.824239|    0.012017|
|        5303|   -6.068078|   -7.959901|    0.824239|    0.012017|
|        5304|   -6.072532|   -7.963985|    0.824240|    0.012016|
|        5305|   -6.076512|   -7.968175|    0.824240|    0.012016|
|        5306|   -6.080037|   -7.972476|    0.824240|    0.012016|
|        5307|   -6.083139|   -7.976890|    0.824240|    0.012016|
|        5308|   -6.085858|   -7.981421|    0.824240|    0.012016|
|        5309|   -6.088242|   -7.986071|    0.824240|    0.012016|
|        5310|   -6.090345|   -7.990844|    0.824240|    0.012016|
|        5311|   -6.092222|   -7.995742|    0.824241|    0.012016|
|        5312|   -6.093933|   -8.000769|    0.824241|    0.012016|
|        5313|   -6.095535|   -8.005926|    0.824241|    0.012016|
|        5314|   -6.097085|   -8.011217|    0.824241|    0.012016|
|        5315|   -6.098636|   -8.016647|    0.824241|    0.012016|
|        5316|   -6.100237|   -8.022219|    0.824241|    0.012016|
|        5317|   -6.101933|   -8.027934|    0.824241|    0.012017|
|        5318|   -6.103760|   -8.033798|    0.824242|    0.012017|
|        5319|   -6.105753|   -8.039815|    0.824242|    0.012017|
|        5320|   -6.107939|   -8.045991|    0.824242|    0.012017|
|        5321|   -6.110336|   -8.052327|    0.824242|    0.012017|
|        5322|   -6.112955|   -8.058828|    0.824242|    0.012017|
|        5323|   -6.115802|   -8.065494|    0.824242|    0.012017|
|        5324|   -6.118876|   -8.072326|    0.824243|    0.012017|
|        5325|   -6.122169|   -8.079323|    0.824243|    0.012017|
|        5326|   -6.125668|   -8.086482|    0.824243|    0.012017|
|        5327|   -6.129352|   -8.093797|    0.824243|    0.012017|
|        5328|   -6.133195|   -8.101263|    0.824243|    0.012017|
|        5329|   -6.137168|   -8.108872|    0.824244|    0.012017|
|        5330|   -6.141235|   -8.116613|    0.824244|    0.012017|
|        5331|   -6.145358|   -8.124476|    0.824244|    0.012018|
|        5332|   -6.149496|   -8.132449|    0.824244|    0.012018|
|        5333|   -6.153608|   -8.140518|    0.824244|    0.012018|
|        5334|   -6.157651|   -8.148681|    0.824244|    0.012018|
|        5335|   -6.161584|   -8.156919|    0.824245|    0.012018|
|        5336|   -6.165369|   -8.165218|    0.824245|    0.012018|
|        5337|   -6.168972|   -8.173566|    0.824245|    0.012018|
|        5338|   -6.172362|   -8.181950|    0.824245|    0.012018|
|        5339|   -6.175518|   -8.190358|    0.824245|    0.012018|
|        5340|   -6.178425|   -8.198780|    0.824245|    0.012018|
|        5341|   -6.181075|   -8.207208|    0.824246|    0.012018|
|        5342|   -6.183470|   -8.215643|    0.824246|    0.012019|
|        5343|   -6.185617|   -8.224080|    0.824246|    0.012019|
|        5344|   -6.187535|   -8.232513|    0.824246|    0.012019|
|        5345|   -6.189247|   -8.240943|    0.824246|    0.012019|
|        5346|   -6.190785|   -8.249372|    0.824246|    0.012019|
|        5347|   -6.192183|   -8.257802|    0.824246|    0.012019|
|        5348|   -6.193481|   -8.266238|    0.824247|    0.012019|
|        5349|   -6.194723|   -8.274689|    0.824247|    0.012019|
|        5350|   -6.195950|   -8.283161|    0.824247|    0.012019|
|        5351|   -6.197207|   -8.291662|    0.824247|    0.012019|
|        5352|   -6.198537|   -8.300201|    0.824247|    0.012019|
|        5353|   -6.199980|   -8.308788|    0.824247|    0.012019|
|        5354|   -6.201576|   -8.317428|    0.824247|    0.012019|
|        5355|   -6.203358|   -8.326131|    0.824247|    0.012019|
|        5356|   -6.205359|   -8.334901|    0.824247|    0.012019|
|        5357|   -6.207605|   -8.343743|    0.824247|    0.012019|
|        5358|   -6.210120|   -8.352661|    0.824248|    0.012019|
|        5359|   -6.212921|   -8.361655|    0.824248|    0.012019|
|        5360|   -6.216021|   -8.370724|    0.824248|    0.012019|
|        5361|   -6.219428|   -8.379866|    0.824248|    0.012019|
|        5362|   -6.223147|   -8.389075|    0.824248|    0.012019|
|        5363|   -6.227175|   -8.398344|    0.824248|    0.012019|
|        5364|   -6.231506|   -8.407664|    0.824248|    0.012019|
|        5365|   -6.236127|   -8.417025|    0.824248|    0.012019|
|        5366|   -6.241023|   -8.426409|    0.824248|    0.012019|
|        5367|   -6.246172|   -8.435803|    0.824248|    0.012019|
|        5368|   -6.251547|   -8.445187|    0.824248|    0.012019|
|        5369|   -6.257117|   -8.454542|    0.824248|    0.012019|
|        5370|   -6.262848|   -8.463848|    0.824248|    0.012019|
|        5371|   -6.268700|   -8.473079|    0.824248|    0.012019|
|        5372|   -6.274631|   -8.482213|    0.824248|    0.012019|
|        5373|   -6.280594|   -8.491222|    0.824248|    0.012019|
|        5374|   -6.286541|   -8.500080|    0.824248|    0.012019|
|        5375|   -6.292425|   -8.508762|    0.824248|    0.012019|
|        5376|   -6.298194|   -8.517242|    0.824248|    0.012019|
|        5377|   -6.303800|   -8.525494|    0.824248|    0.012019|
|        5378|   -6.309197|   -8.533493|    0.824248|    0.012019|
|        5379|   -6.314340|   -8.541215|    0.824248|    0.012018|
|        5380|   -6.319190|   -8.548636|    0.824248|    0.012018|
|        5381|   -6.323714|   -8.555736|    0.824248|    0.012018|
|        5382|   -6.327883|   -8.562494|    0.824248|    0.012018|
|        5383|   -6.331677|   -8.568891|    0.824248|    0.012018|
|        5384|   -6.335083|   -8.574912|    0.824248|    0.012018|
|        5385|   -6.338094|   -8.580541|    0.824249|    0.012018|
|        5386|   -6.340714|   -8.585765|    0.824249|    0.012018|
|        5387|   -6.342949|   -8.590573|    0.824249|    0.012018|
|        5388|   -6.344814|   -8.594953|    0.824249|    0.012018|
|        5389|   -6.346329|   -8.598896|    0.824249|    0.012018|
|        5390|   -6.347517|   -8.602393|    0.824249|    0.012018|
|        5391|   -6.348406|   -8.605436|    0.824249|    0.012017|
|        5392|   -6.349022|   -8.608019|    0.824249|    0.012017|
|        5393|   -6.349395|   -8.610137|    0.824250|    0.012017|
|        5394|   -6.349553|   -8.611786|    0.824250|    0.012017|
|        5395|   -6.349524|   -8.612964|    0.824250|    0.012017|
|        5396|   -6.349335|   -8.613675|    0.824250|    0.012017|
|        5397|   -6.349007|   -8.613921|    0.824250|    0.012017|
|        5398|   -6.348564|   -8.613716|    0.824250|    0.012017|
|        5399|   -6.348023|   -8.613076|    0.824251|    0.012017|
|        5400|   -6.347399|   -8.612020|    0.824251|    0.012017|
|        5401|   -6.346708|   -8.610573|    0.824251|    0.012016|
|        5402|   -6.345959|   -8.608762|    0.824251|    0.012016|
|        5403|   -6.345163|   -8.606619|    0.824251|    0.012016|
|        5404|   -6.344327|   -8.604179|    0.824252|    0.012016|
|        5405|   -6.343454|   -8.601481|    0.824252|    0.012016|
|        5406|   -6.342551|   -8.598567|    0.824252|    0.012016|
|        5407|   -6.341620|   -8.595482|    0.824252|    0.012016|
|        5408|   -6.340665|   -8.592271|    0.824253|    0.012016|
|        5409|   -6.339687|   -8.588982|    0.824253|    0.012016|
|        5410|   -6.338690|   -8.585662|    0.824253|    0.012016|
|        5411|   -6.337676|   -8.582356|    0.824253|    0.012016|
|        5412|   -6.336647|   -8.579107|    0.824254|    0.012016|
|        5413|   -6.335605|   -8.575955|    0.824254|    0.012015|
|        5414|   -6.334555|   -8.572936|    0.824254|    0.012015|
|        5415|   -6.333499|   -8.570082|    0.824254|    0.012015|
|        5416|   -6.332442|   -8.567421|    0.824254|    0.012015|
|        5417|   -6.331389|   -8.564977|    0.824255|    0.012015|
|        5418|   -6.330345|   -8.562769|    0.824255|    0.012015|
|        5419|   -6.329317|   -8.560811|    0.824255|    0.012015|
|        5420|   -6.328312|   -8.559115|    0.824255|    0.012015|
|        5421|   -6.327337|   -8.557688|    0.824255|    0.012015|
|        5422|   -6.326401|   -8.556532|    0.824256|    0.012015|
|        5423|   -6.325514|   -8.555650|    0.824256|    0.012015|
|        5424|   -6.324685|   -8.555037|    0.824256|    0.012015|
|        5425|   -6.323925|   -8.554691|    0.824256|    0.012015|
|        5426|   -6.323245|   -8.554604|    0.824256|    0.012015|
|        5427|   -6.322658|   -8.554769|    0.824256|    0.012015|
|        5428|   -6.322177|   -8.555178|    0.824257|    0.012015|
|        5429|   -6.321814|   -8.555820|    0.824257|    0.012015|
|        5430|   -6.321583|   -8.556686|    0.824257|    0.012015|
|        5431|   -6.321498|   -8.557765|    0.824257|    0.012015|
|        5432|   -6.321574|   -8.559049|    0.824257|    0.012015|
|        5433|   -6.321825|   -8.560528|    0.824257|    0.012015|
|        5434|   -6.322264|   -8.562194|    0.824257|    0.012015|
|        5435|   -6.322904|   -8.564038|    0.824258|    0.012015|
|        5436|   -6.323760|   -8.566055|    0.824258|    0.012015|
|        5437|   -6.324843|   -8.568239|    0.824258|    0.012015|
|        5438|   -6.326164|   -8.570585|    0.824258|    0.012015|
|        5439|   -6.327733|   -8.573091|    0.824258|    0.012015|
|        5440|   -6.329559|   -8.575754|    0.824258|    0.012015|
|        5441|   -6.331648|   -8.578572|    0.824258|    0.012015|
|        5442|   -6.334005|   -8.581546|    0.824258|    0.012015|
|        5443|   -6.336632|   -8.584675|    0.824258|    0.012015|
|        5444|   -6.339530|   -8.587959|    0.824258|    0.012015|
|        5445|   -6.342695|   -8.591398|    0.824258|    0.012016|
|        5446|   -6.346124|   -8.594992|    0.824258|    0.012016|
|        5447|   -6.349807|   -8.598741|    0.824259|    0.012016|
|        5448|   -6.353733|   -8.602646|    0.824259|    0.012016|
|        5449|   -6.357887|   -8.606708|    0.824259|    0.012016|
|        5450|   -6.362251|   -8.610923|    0.824259|    0.012016|
|        5451|   -6.366803|   -8.615291|    0.824259|    0.012016|
|        5452|   -6.371517|   -8.619807|    0.824259|    0.012016|
|        5453|   -6.376366|   -8.624467|    0.824259|    0.012016|
|        5454|   -6.381316|   -8.629266|    0.824259|    0.012016|
|        5455|   -6.386332|   -8.634198|    0.824259|    0.012016|
|        5456|   -6.391376|   -8.639256|    0.824259|    0.012016|
|        5457|   -6.396407|   -8.644432|    0.824259|    0.012016|
|        5458|   -6.401382|   -8.649719|    0.824259|    0.012017|
|        5459|   -6.406258|   -8.655107|    0.824259|    0.012017|
|        5460|   -6.410989|   -8.660586|    0.824259|    0.012017|
|        5461|   -6.415532|   -8.666146|    0.824258|    0.012017|
|        5462|   -6.419845|   -8.671770|    0.824258|    0.012017|
|        5463|   -6.423887|   -8.677449|    0.824258|    0.012017|
|        5464|   -6.427620|   -8.683172|    0.824258|    0.012017|
|        5465|   -6.431013|   -8.688928|    0.824258|    0.012017|
|        5466|   -6.434039|   -8.694704|    0.824258|    0.012017|
|        5467|   -6.436678|   -8.700486|    0.824258|    0.012017|
|        5468|   -6.438916|   -8.706260|    0.824258|    0.012017|
|        5469|   -6.440745|   -8.712011|    0.824258|    0.012017|
|        5470|   -6.442168|   -8.717726|    0.824258|    0.012017|
|        5471|   -6.443191|   -8.723389|    0.824258|    0.012017|
|        5472|   -6.443831|   -8.728988|    0.824258|    0.012018|
|        5473|   -6.444107|   -8.734506|    0.824258|    0.012018|
|        5474|   -6.444046|   -8.739929|    0.824258|    0.012018|
|        5475|   -6.443679|   -8.745241|    0.824257|    0.012018|
|        5476|   -6.443042|   -8.750427|    0.824257|    0.012018|
|        5477|   -6.442171|   -8.755470|    0.824257|    0.012018|
|        5478|   -6.441105|   -8.760355|    0.824257|    0.012018|
|        5479|   -6.439885|   -8.765065|    0.824257|    0.012018|
|        5480|   -6.438548|   -8.769583|    0.824257|    0.012018|
|        5481|   -6.437135|   -8.773896|    0.824257|    0.012018|
|        5482|   -6.435683|   -8.777987|    0.824257|    0.012018|
|        5483|   -6.434228|   -8.781845|    0.824257|    0.012018|
|        5484|   -6.432801|   -8.785459|    0.824256|    0.012018|
|        5485|   -6.431436|   -8.788817|    0.824256|    0.012018|
|        5486|   -6.430159|   -8.791916|    0.824256|    0.012018|
|        5487|   -6.428997|   -8.794749|    0.824256|    0.012018|
|        5488|   -6.427971|   -8.797316|    0.824256|    0.012018|
|        5489|   -6.427103|   -8.799618|    0.824256|    0.012018|
|        5490|   -6.426409|   -8.801661|    0.824256|    0.012018|
|        5491|   -6.425904|   -8.803452|    0.824256|    0.012018|
|        5492|   -6.425600|   -8.805001|    0.824256|    0.012018|
|        5493|   -6.425508|   -8.806321|    0.824256|    0.012018|
|        5494|   -6.425636|   -8.807427|    0.824256|    0.012018|
|        5495|   -6.425989|   -8.808335|    0.824256|    0.012018|
|        5496|   -6.426571|   -8.809065|    0.824256|    0.012018|
|        5497|   -6.427386|   -8.809633|    0.824256|    0.012018|
|        5498|   -6.428433|   -8.810062|    0.824256|    0.012018|
|        5499|   -6.429713|   -8.810369|    0.824256|    0.012003|
+-----------------------------------------------------------------------+
|Fixed CL Mode (Finite Difference)       |Value                         |
+-----------------------------------------------------------------------+
|Delta CL / Delta AoA                    |0.255027                      |
|Delta CD / Delta CL                     |0.0185448                     |
|Delta CMz / Delta CL                    |0.0140804                     |
+-----------------------------------------------------------------------+
Writing Flow Meta-Data file: flow.meta

----------------------------- Solver Exit -------------------------------

Maximum number of iterations reached (ITER = 5500) before convergence.
+-----------------------------------------------------------------------+
|      Convergence Field     |     Value    |   Criterion  |  Converged |
+-----------------------------------------------------------------------+
|                    rms[Rho]|      -6.42971|         < -12|          No|
+-----------------------------------------------------------------------+
-------------------------------------------------------------------------

--------------------------- Finalizing Solver ---------------------------
Deleted CNumerics container.
Deleted CIntegration container.
Deleted CSolver container.
Deleted CIteration container.
Deleted CInterface container.
Deleted CGeometry container.
Deleted CFreeFormDefBox class.
Deleted CSurfaceMovement class.
Deleted CVolumetricMovement class.
Deleted CConfig container.
Deleted nInst container.
Deleted COutput class.
-------------------------------------------------------------------------

------------------------- Exit Success (SU2_CFD) ------------------------


-------------------------------------------------------------------------
|    ___ _   _ ___                                                      |
|   / __| | | |_  )   Release 8.0.0 "Harrier"                           |
|   \__ \ |_| |/ /                                                      |
|   |___/\___//___|   Suite (Solution Exporting Code)                   |
|                                                                       |
-------------------------------------------------------------------------
| SU2 Project Website: https://su2code.github.io                        |
|                                                                       |
| The SU2 Project is maintained by the SU2 Foundation                   |
| (http://su2foundation.org)                                            |
-------------------------------------------------------------------------
| Copyright 2012-2023, SU2 Contributors                                 |
|                                                                       |
| SU2 is free software; you can redistribute it and/or                  |
| modify it under the terms of the GNU Lesser General Public            |
| License as published by the Free Software Foundation; either          |
| version 2.1 of the License, or (at your option) any later version.    |
|                                                                       |
| SU2 is distributed in the hope that it will be useful,                |
| but WITHOUT ANY WARRANTY; without even the implied warranty of        |
| MERCHANTABILITY or FITNESS FOR A PARTICULAR PURPOSE. See the GNU      |
| Lesser General Public License for more details.                       |
|                                                                       |
| You should have received a copy of the GNU Lesser General Public      |
| License along with SU2. If not, see <http://www.gnu.org/licenses/>.   |
-------------------------------------------------------------------------

----------------- Physical Case Definition ( Zone 0 ) -------------------
Input mesh file name: mesh_RAE2822_turb_deform.su2

-------------------- Output Information ( Zone 0 ) ----------------------
The tabular file format is CSV (.csv).
Flow variables file name: flow.

------------- Config File Boundary Information ( Zone 0 ) ---------------
+-----------------------------------------------------------------------+
|                        Marker Type|                        Marker Name|
+-----------------------------------------------------------------------+
|                          Far-field|                           FARFIELD|
+-----------------------------------------------------------------------+
|                     Heat flux wall|                            AIRFOIL|
+-----------------------------------------------------------------------+
Two dimensional problem.
13937 grid points before partitioning.
22842 volume elements before partitioning.
2 surface markers.
192 boundary elements in index 0 (Marker = AIRFOIL).
40 boundary elements in index 1 (Marker = FARFIELD).
Executing the partitioning functions.
Building the graph adjacency structure.
Calling ParMETIS... graph partitioning complete (831 edge cuts).
Distributing ParMETIS coloring.
Rebalancing vertices.
Rebalancing volume element connectivity.
Rebalancing markers and surface elements.
14875 vertices including ghost points. 
23674 interior elements including halo cells. 
18780 triangles.
4894 quadrilaterals.
Establishing MPI communication patterns.
Identify vertices.
Storing a mapping from global to local point index.

------------------------- Solution Postprocessing -----------------------
Reading and storing the solution from restart_flow.
Volume output fields: COORDINATES, SOLUTION
  Info: Ignoring the following screen output fields:
  RMS_DENSITY, RMS_NU_TILDE, LIFT, DRAG
Screen output fields: INNER_ITER
  Info: Ignoring the following history output groups:
  RMS_RES, AERO_COEFF
History output group(s): ITER
Warning: No (valid) fields chosen for convergence monitoring. Convergence monitoring inactive.
Warning: No (valid) fields chosen for time convergence monitoring. Time convergence monitoring inactive.
|Paraview                           |flow.vtu                           |
|Paraview surface                   |surface_flow.vtu                   |
|CSV file                           |surface_flow.csv                   |

------------------------- Finalize Solver -------------------------
Deleted CGeometry container.
Deleted CSolver class.
Deleted CConfig container.
Deleted COutput class.

Completed in 0.017256 seconds on 6 cores.

------------------------- Exit Success (SU2_SOL) ------------------------

