
-------------------------------------------------------------------------
|    ___ _   _ ___                                                      |
|   / __| | | |_  )   Release 8.0.0 "Harrier"                           |
|   \__ \ |_| |/ /                                                      |
|   |___/\___//___|   Suite (Computational Fluid Dynamics Code)         |
|                                                                       |
-------------------------------------------------------------------------
| SU2 Project Website: https://su2code.github.io                        |
|                                                                       |
| The SU2 Project is maintained by the SU2 Foundation                   |
| (http://su2foundation.org)                                            |
-------------------------------------------------------------------------
| Copyright 2012-2023, SU2 Contributors                                 |
|                                                                       |
| SU2 is free software; you can redistribute it and/or                  |
| modify it under the terms of the GNU Lesser General Public            |
| License as published by the Free Software Foundation; either          |
| version 2.1 of the License, or (at your option) any later version.    |
|                                                                       |
| SU2 is distributed in the hope that it will be useful,                |
| but WITHOUT ANY WARRANTY; without even the implied warranty of        |
| MERCHANTABILITY or FITNESS FOR A PARTICULAR PURPOSE. See the GNU      |
| Lesser General Public License for more details.                       |
|                                                                       |
| You should have received a copy of the GNU Lesser General Public      |
| License along with SU2. If not, see <http://www.gnu.org/licenses/>.   |
-------------------------------------------------------------------------

Parsing config file for zone 0

----------------- Physical Case Definition ( Zone 0 ) -------------------
Compressible RANS equations.
Turbulence model: Spalart-Allmaras-noft2
Hybrid RANS/LES: No Hybrid RANS/LES
Mach number: 0.734.
Angle of attack (AoA): 2.31 deg, and angle of sideslip (AoS): 0 deg.
Reynolds number: 6.5e+06. Reference length 1.
Fixed CL mode, target value: 0.824.
Reading and writing binary SU2 native restart files.
Read flow solution from: solution_flow.dat.
Dimensional simulation.
The reference area is 1 m^2.
The semi-span will be computed using the max y(3D) value.
The reference length is 1 m.
Reference origin for moment evaluation is (0.25, 0, 0).
Surface(s) where the force coefficients are evaluated: AIRFOIL.

Surface(s) plotted in the output file: AIRFOIL.
Surface(s) affected by the design variables: AIRFOIL.
Input mesh file name: mesh_RAE2822_turb_deform.su2

--------------- Space Numerical Integration ( Zone 0 ) ------------------
Jameson-Schmidt-Turkel scheme (2nd order in space) for the flow inviscid terms.
JST viscous coefficients (2nd & 4th): 0.5, 0.02.
The method includes a grid stretching correction (p = 0.3).
Scalar upwind solver for the turbulence model.
First order integration in space.
Average of gradients with correction (viscous flow terms).
Average of gradients with correction (viscous turbulence terms).
Gradient for viscous and source terms: inverse-distance weighted Least-Squares.

--------------- Time Numerical Integration  ( Zone 0 ) ------------------
Local time stepping (steady state simulation).
Euler implicit method for the flow equations.
FGMRES is used for solving the linear system.
Using a ILU(0) preconditioning.
Convergence criteria of the linear solver: 1e-06.
Max number of linear iterations: 10.
No CFL adaptation.
Courant-Friedrichs-Lewy number:       10
Euler implicit time integration for the turbulence model.

------------------ Convergence Criteria  ( Zone 0 ) ---------------------
Maximum number of solver subiterations: 5500.
Begin convergence monitoring at iteration 10.
Residual minimum value: 1e-12.
Cauchy series min. value: 1e-06.
Number of Cauchy elements: 100.
Begin windowed time average at iteration 0.

-------------------- Output Information ( Zone 0 ) ----------------------
File writing frequency: 
+------------------------------------+
|                     File| Frequency|
+------------------------------------+
|                  RESTART|     10000|
|                 PARAVIEW|     10000|
|         SURFACE_PARAVIEW|     10000|
|              SURFACE_CSV|     10000|
+------------------------------------+
Writing the convergence history file every 1 inner iterations.
Writing the screen convergence history every 1 inner iterations.
The tabular file format is CSV (.csv).
Convergence history file name: history_direct.
Forces breakdown file name: forces_breakdown.dat.
Surface file name: surface_flow.
Volume file name: flow.
Restart file name: restart_flow.dat.

------------- Config File Boundary Information ( Zone 0 ) ---------------
+-----------------------------------------------------------------------+
|                        Marker Type|                        Marker Name|
+-----------------------------------------------------------------------+
|                          Far-field|                           FARFIELD|
+-----------------------------------------------------------------------+
|                     Heat flux wall|                            AIRFOIL|
+-----------------------------------------------------------------------+

-------------------- Output Preprocessing ( Zone 0 ) --------------------

WARNING: SURFACE_PRESSURE_DROP can only be computed for at least 2 surfaces (outlet, inlet, ...)

Screen output fields: INNER_ITER, RMS_DENSITY, RMS_NU_TILDE, LIFT, DRAG
History output group(s): ITER, RMS_RES, AERO_COEFF
Convergence field(s): RMS_DENSITY
Warning: No (valid) fields chosen for time convergence monitoring. Time convergence monitoring inactive.
Volume output fields: COORDINATES, SOLUTION, PRIMITIVE

------------------- Geometry Preprocessing ( Zone 0 ) -------------------
Two dimensional problem.
13937 grid points before partitioning.
22842 volume elements before partitioning.
2 surface markers.
192 boundary elements in index 0 (Marker = AIRFOIL).
40 boundary elements in index 1 (Marker = FARFIELD).
Executing the partitioning functions.
Building the graph adjacency structure.
Calling ParMETIS... graph partitioning complete (831 edge cuts).
Distributing ParMETIS coloring.
Rebalancing vertices.
Rebalancing volume element connectivity.
Rebalancing markers and surface elements.
14875 vertices including ghost points. 
23674 interior elements including halo cells. 
18780 triangles.
4894 quadrilaterals.
Establishing MPI communication patterns.
Setting point connectivity.
Renumbering points (Reverse Cuthill McKee Ordering).
Recomputing point connectivity.
Setting element connectivity.
Checking the numerical grid orientation.
All volume elements are correctly orientend.
All surface elements are correctly orientend.
Identifying edges and vertices.
Setting the control volume structure.
Area of the computational grid: 32209.9.
Searching for the closest normal neighbors to the surfaces.
Storing a mapping from global to local point index.
Compute the surface curvature.
Max K: 208.215. Mean K: 8.37973. Standard deviation K: 27.319.
Checking for periodicity.
Computing mesh quality statistics for the dual control volumes.
+--------------------------------------------------------------+
|           Mesh Quality Metric|        Minimum|        Maximum|
+--------------------------------------------------------------+
|    Orthogonality Angle (deg.)|        74.4456|        89.9998|
|     CV Face Area Aspect Ratio|        1.00104|        3359.05|
|           CV Sub-Volume Ratio|        1.00066|        1219.91|
+--------------------------------------------------------------+
Finding max control volume width.
Communicating number of neighbors.
Wetted area = 2.02132 m.
Area projection in the x-plane = 0.12806 m, y-plane = 0.995873 m.
Max. coordinate in the x-direction = 1 m, y-direction = 0.061515 m.
Min. coordinate in the x-direction = 0 m, y-direction = -0.0626589 m.
Computing wall distances.

-------------------- Solver Preprocessing ( Zone 0 ) --------------------
WARNING: AoA in the solution file (2.76558 deg.) +
         AoA offset in mesh file (0 deg.) = 2.76558 deg.
WARNING: SU2 will use the dCD/dCL provided in the direct solution file: 0.0205988.
WARNING: SU2 will use the dCMz/dCL provided in the direct solution file: 0.0157598.
Viscous flow: Computing pressure using the ideal gas law
based on the free-stream temperature and a density computed
from the Reynolds number.
Force coefficients computed using free-stream values.

-- Models:
+------------------------------------------------------------------------------+
|          Viscosity Model|        Conductivity Model|              Fluid Model|
+------------------------------------------------------------------------------+
|               SUTHERLAND|          CONSTANT_PRANDTL|             STANDARD_AIR|
+------------------------------------------------------------------------------+
-- Fluid properties:
+------------------------------------------------------------------------------+
|                  Name|    Dim. value|    Ref. value|      Unit|Non-dim. value|
+------------------------------------------------------------------------------+
|        Ref. Viscosity|     1.716e-05|             1|   N.s/m^2|     1.716e-05|
|      Sutherland Temp.|        273.15|             1|         K|        273.15|
|     Sutherland Const.|         110.4|             1|         K|         110.4|
+------------------------------------------------------------------------------+
|        Prandtl (Lam.)|             -|             -|         -|          0.71|
|       Prandtl (Turb.)|             -|             -|         -|           0.9|
+------------------------------------------------------------------------------+
|          Gas Constant|       287.058|             1|  N.m/kg.K|       287.058|
|      Spec. Heat Ratio|             -|             -|         -|           1.4|
+------------------------------------------------------------------------------+
-- Initial and free-stream conditions:
+------------------------------------------------------------------------------+
|                  Name|    Dim. value|    Ref. value|      Unit|Non-dim. value|
+------------------------------------------------------------------------------+
|       Static Pressure|         38515|             1|        Pa|         38515|
|               Density|      0.465631|             1|    kg/m^3|      0.465631|
|           Temperature|        288.15|             1|         K|        288.15|
|          Total Energy|        237984|             1|   m^2/s^2|        237984|
|            Velocity-X|       249.487|             1|       m/s|       249.487|
|            Velocity-Y|       12.0517|             1|       m/s|       12.0517|
|    Velocity Magnitude|       249.778|             1|       m/s|       249.778|
+------------------------------------------------------------------------------+
|             Viscosity|    1.7893e-05|             1|   N.s/m^2|    1.7893e-05|
|          Conductivity|             -|             1|   W/m^2.K|             -|
|     Turb. Kin. Energy|       233.959|             1|   m^2/s^2|       233.959|
|     Spec. Dissipation|        608834|             1|       1/s|        608834|
+------------------------------------------------------------------------------+
|           Mach Number|             -|             -|         -|         0.734|
|       Reynolds Number|             -|             -|         -|       6.5e+06|
+------------------------------------------------------------------------------+
Initialize Jacobian structure (Navier-Stokes). MG level: 0.
Initialize Jacobian structure (SA model).

------------------- Numerics Preprocessing ( Zone 0 ) -------------------

----------------- Integration Preprocessing ( Zone 0 ) ------------------

------------------- Iteration Preprocessing ( Zone 0 ) ------------------
Euler/Navier-Stokes/RANS fluid iteration.

------------------------------ Begin Solver -----------------------------

Simulation Run using the Single-zone Driver
WARNING: SU2 was not compiled for an AVX-capable architecture. Performance could be better,
         see https://su2code.github.io/docs_v7/Build-SU2-Linux-MacOS/#compiler-optimizations
+----------------------------------------------------------------+
|  Inner_Iter|    rms[Rho]|     rms[nu]|          CL|          CD|
+----------------------------------------------------------------+
|           0|   -6.584198|   -7.995027|    0.824002|    0.011994|
|           1|   -6.639981|   -8.093306|    0.824003|    0.011994|
|           2|   -6.698602|   -8.219940|    0.824003|    0.011994|
|           3|   -6.742983|   -8.373508|    0.824003|    0.011994|
|           4|   -6.773559|   -8.536208|    0.824003|    0.011994|
|           5|   -6.792056|   -8.651226|    0.824002|    0.011994|
|           6|   -6.800415|   -8.672625|    0.824002|    0.011994|
|           7|   -6.801495|   -8.645460|    0.824002|    0.011994|
|           8|   -6.798031|   -8.612488|    0.824002|    0.011995|
|           9|   -6.791791|   -8.579581|    0.824002|    0.011995|
|          10|   -6.783654|   -8.544238|    0.824003|    0.011995|
|          11|   -6.774138|   -8.509000|    0.824003|    0.011995|
|          12|   -6.763763|   -8.480188|    0.824003|    0.011995|
|          13|   -6.753091|   -8.463342|    0.824003|    0.011995|
|          14|   -6.742614|   -8.461379|    0.824004|    0.011995|
|          15|   -6.732686|   -8.474704|    0.824004|    0.011995|
|          16|   -6.723553|   -8.501287|    0.824004|    0.011996|
|          17|   -6.715424|   -8.535877|    0.824004|    0.011996|
|          18|   -6.708519|   -8.568852|    0.824004|    0.011996|
|          19|   -6.703055|   -8.587732|    0.824004|    0.011996|
|          20|   -6.699189|   -8.584698|    0.824004|    0.011996|
|          21|   -6.696956|   -8.563555|    0.824004|    0.011996|
|          22|   -6.696243|   -8.535394|    0.824003|    0.011997|
|          23|   -6.696794|   -8.509895|    0.824003|    0.011997|
|          24|   -6.698271|   -8.492251|    0.824003|    0.011997|
|          25|   -6.700318|   -8.484135|    0.824002|    0.011997|
|          26|   -6.702624|   -8.485100|    0.824002|    0.011997|
|          27|   -6.704958|   -8.493380|    0.824001|    0.011997|
|          28|   -6.707163|   -8.506278|    0.824001|    0.011997|
|          29|   -6.709128|   -8.520499|    0.824000|    0.011997|
|          30|   -6.710743|   -8.532741|    0.824000|    0.011997|
|          31|   -6.711877|   -8.540587|    0.824000|    0.011997|
|          32|   -6.712366|   -8.543280|    0.823999|    0.011997|
|          33|   -6.712045|   -8.541825|    0.823999|    0.011997|
|          34|   -6.710784|   -8.538320|    0.823999|    0.011997|
|          35|   -6.708530|   -8.535058|    0.823998|    0.011996|
|          36|   -6.705327|   -8.533920|    0.823998|    0.011996|
|          37|   -6.701312|   -8.536154|    0.823998|    0.011996|
|          38|   -6.696681|   -8.542412|    0.823997|    0.011996|
|          39|   -6.691654|   -8.552853|    0.823997|    0.011996|
|          40|   -6.686436|   -8.567229|    0.823997|    0.011996|
|          41|   -6.681193|   -8.584924|    0.823996|    0.011996|
|          42|   -6.676045|   -8.604943|    0.823996|    0.011996|
|          43|   -6.671058|   -8.625882|    0.823996|    0.011996|
|          44|   -6.666255|   -8.645948|    0.823996|    0.011996|
|          45|   -6.661621|   -8.663105|    0.823995|    0.011995|
|          46|   -6.657107|   -8.675429|    0.823995|    0.011995|
|          47|   -6.652639|   -8.681617|    0.823995|    0.011995|
|          48|   -6.648128|   -8.681417|    0.823995|    0.011995|
|          49|   -6.643478|   -8.675714|    0.823995|    0.011995|
|          50|   -6.638600|   -8.666184|    0.823994|    0.011995|
|          51|   -6.633425|   -8.654770|    0.823994|    0.011995|
|          52|   -6.627910|   -8.643236|    0.823994|    0.011995|
|          53|   -6.622051|   -8.632948|    0.823994|    0.011995|
|          54|   -6.615879|   -8.624826|    0.823994|    0.011995|
|          55|   -6.609457|   -8.619391|    0.823994|    0.011995|
|          56|   -6.602867|   -8.616853|    0.823994|    0.011995|
|          57|   -6.596205|   -8.617180|    0.823994|    0.011994|
|          58|   -6.589562|   -8.620168|    0.823994|    0.011994|
|          59|   -6.583019|   -8.625490|    0.823995|    0.011994|
|          60|   -6.576638|   -8.632736|    0.823995|    0.011994|
|          61|   -6.570462|   -8.641454|    0.823995|    0.011994|
|          62|   -6.564510|   -8.651176|    0.823995|    0.011994|
|          63|   -6.558788|   -8.661444|    0.823995|    0.011994|
|          64|   -6.553289|   -8.671832|    0.823996|    0.011994|
|          65|   -6.547998|   -8.681960|    0.823996|    0.011994|
|          66|   -6.542905|   -8.691498|    0.823996|    0.011994|
|          67|   -6.537999|   -8.700182|    0.823996|    0.011994|
|          68|   -6.533281|   -8.707820|    0.823997|    0.011994|
|          69|   -6.528757|   -8.714295|    0.823997|    0.011994|
|          70|   -6.524439|   -8.719576|    0.823997|    0.011994|
|          71|   -6.520346|   -8.723710|    0.823997|    0.011994|
|          72|   -6.516497|   -8.726811|    0.823998|    0.011994|
|          73|   -6.512908|   -8.729034|    0.823998|    0.011994|
|          74|   -6.509590|   -8.730546|    0.823998|    0.011994|
|          75|   -6.506548|   -8.731490|    0.823998|    0.011994|
|          76|   -6.503777|   -8.731970|    0.823998|    0.011994|
|          77|   -6.501264|   -8.732030|    0.823998|    0.011994|
|          78|   -6.498989|   -8.731666|    0.823998|    0.011993|
|          79|   -6.496925|   -8.730840|    0.823998|    0.011993|
|          80|   -6.495042|   -8.729505|    0.823998|    0.011993|
|          81|   -6.493309|   -8.727637|    0.823998|    0.011993|
|          82|   -6.491699|   -8.725258|    0.823998|    0.011993|
|          83|   -6.490188|   -8.722448|    0.823999|    0.011993|
|          84|   -6.488758|   -8.719347|    0.823999|    0.011993|
|          85|   -6.487401|   -8.716142|    0.823999|    0.011993|
|          86|   -6.486118|   -8.713045|    0.823999|    0.011993|
|          87|   -6.484917|   -8.710269|    0.823999|    0.011993|
|          88|   -6.483818|   -8.708007|    0.823999|    0.011993|
|          89|   -6.482846|   -8.706416|    0.823999|    0.011993|
|          90|   -6.482032|   -8.705606|    0.823999|    0.011993|
|          91|   -6.481412|   -8.705640|    0.823999|    0.011993|
|          92|   -6.481025|   -8.706534|    0.823999|    0.011993|
|          93|   -6.480909|   -8.708264|    0.823999|    0.011993|
|          94|   -6.481100|   -8.710777|    0.823999|    0.011993|
|          95|   -6.481632|   -8.713994|    0.823999|    0.011993|
|          96|   -6.482530|   -8.717825|    0.823999|    0.011993|
|          97|   -6.483816|   -8.722175|    0.823999|    0.011993|
|          98|   -6.485501|   -8.726950|    0.823999|    0.011994|
|          99|   -6.487585|   -8.732061|    0.823999|    0.011994|
|         100|   -6.490057|   -8.737432|    0.823999|    0.011994|
|         101|   -6.492893|   -8.742994|    0.823999|    0.011994|
+-----------------------------------------------------------------------+
|Fixed CL Mode                           |Value                         |
+-----------------------------------------------------------------------+
|Current CL                              |0.823999                      |
|Target CL                               |0.824                         |
|Previous AOA                            |2.76558                       |
|Changed AoA by                          |4.33555e-06                   |
+-----------------------------------------------------------------------+
+----------------------------------------------------------------+
|  Inner_Iter|    rms[Rho]|     rms[nu]|          CL|          CD|
+----------------------------------------------------------------+
|         102|   -5.554273|   -8.745756|    0.823999|    0.011994|
|         103|   -5.934589|   -8.753132|    0.823999|    0.011994|
|         104|   -6.169660|   -8.759372|    0.823999|    0.011994|
|         105|   -6.235992|   -8.765423|    0.824000|    0.011994|
|         106|   -6.270250|   -8.771437|    0.824000|    0.011994|
|         107|   -6.309964|   -8.777449|    0.824000|    0.011994|
|         108|   -6.352764|   -8.783471|    0.824000|    0.011994|
|         109|   -6.388791|   -8.789508|    0.824000|    0.011994|
|         110|   -6.412912|   -8.795568|    0.824000|    0.011994|
|         111|   -6.427497|   -8.801656|    0.824000|    0.011994|
|         112|   -6.436863|   -8.807774|    0.824000|    0.011994|
|         113|   -6.443447|   -8.813920|    0.824000|    0.011994|
|         114|   -6.448274|   -8.820088|    0.824000|    0.011994|
|         115|   -6.452223|   -8.826261|    0.824000|    0.011994|
|         116|   -6.456246|   -8.832409|    0.824000|    0.011994|
|         117|   -6.460919|   -8.838498|    0.824000|    0.011994|
|         118|   -6.466160|   -8.844490|    0.824000|    0.011994|
|         119|   -6.471387|   -8.850353|    0.824000|    0.011995|
|         120|   -6.475974|   -8.856061|    0.824000|    0.011995|
|         121|   -6.479629|   -8.861602|    0.824000|    0.011995|
|         122|   -6.482480|   -8.866972|    0.824000|    0.011995|
|         123|   -6.484874|   -8.872184|    0.824000|    0.011995|
|         124|   -6.487093|   -8.877262|    0.824000|    0.011995|
|         125|   -6.489210|   -8.882242|    0.824000|    0.011995|
|         126|   -6.491105|   -8.887174|    0.824000|    0.011995|
|         127|   -6.492571|   -8.892110|    0.824000|    0.011995|
|         128|   -6.493426|   -8.897109|    0.824000|    0.011995|
|         129|   -6.493576|   -8.902224|    0.824000|    0.011995|
|         130|   -6.493026|   -8.907505|    0.824000|    0.011995|
|         131|   -6.491867|   -8.912988|    0.824000|    0.011995|
|         132|   -6.490246|   -8.918691|    0.824000|    0.011995|
|         133|   -6.488338|   -8.924619|    0.824000|    0.011995|
|         134|   -6.486310|   -8.930752|    0.824000|    0.011995|
|         135|   -6.484289|   -8.937049|    0.824000|    0.011995|
|         136|   -6.482347|   -8.943451|    0.824000|    0.011995|
|         137|   -6.480492|   -8.949876|    0.824000|    0.011995|
|         138|   -6.478683|   -8.956232|    0.824000|    0.011995|
|         139|   -6.476842|   -8.962412|    0.824000|    0.011995|
|         140|   -6.474881|   -8.968309|    0.824000|    0.011995|
|         141|   -6.472718|   -8.973816|    0.824000|    0.011995|
|         142|   -6.470298|   -8.978840|    0.824000|    0.011995|
|         143|   -6.467599|   -8.983302|    0.824000|    0.011995|
|         144|   -6.464640|   -8.987148|    0.824000|    0.011995|
|         145|   -6.461469|   -8.990354|    0.824000|    0.011995|
|         146|   -6.458156|   -8.992921|    0.824000|    0.011995|
|         147|   -6.454778|   -8.994884|    0.824000|    0.011995|
|         148|   -6.451401|   -8.996300|    0.824000|    0.011995|
|         149|   -6.448080|   -8.997247|    0.824000|    0.011995|
|         150|   -6.444847|   -8.997820|    0.824000|    0.011995|
|         151|   -6.441719|   -8.998118|    0.824000|    0.011995|
|         152|   -6.438699|   -8.998239|    0.824000|    0.011995|
|         153|   -6.435784|   -8.998278|    0.824000|    0.011995|
|         154|   -6.432971|   -8.998314|    0.824000|    0.011995|
|         155|   -6.430257|   -8.998412|    0.824000|    0.011995|
|         156|   -6.427649|   -8.998618|    0.824000|    0.011995|
|         157|   -6.425155|   -8.998959|    0.824000|    0.011995|
|         158|   -6.422787|   -8.999441|    0.824000|    0.011995|
|         159|   -6.420563|   -9.000055|    0.824000|    0.011995|
|         160|   -6.418496|   -9.000776|    0.824000|    0.011995|
|         161|   -6.416600|   -9.001568|    0.824000|    0.011995|
|         162|   -6.414887|   -9.002390|    0.824000|    0.011995|
|         163|   -6.413362|   -9.003197|    0.824000|    0.011995|
|         164|   -6.412030|   -9.003950|    0.824000|    0.011995|
|         165|   -6.410891|   -9.004618|    0.824000|    0.011995|
|         166|   -6.409943|   -9.005179|    0.824000|    0.011995|
|         167|   -6.409181|   -9.005628|    0.824000|    0.011995|
|         168|   -6.408598|   -9.005975|    0.824000|    0.011995|
|         169|   -6.408185|   -9.006247|    0.824000|    0.011995|
|         170|   -6.407928|   -9.006482|    0.824000|    0.011995|
|         171|   -6.407816|   -9.006731|    0.824000|    0.011995|
|         172|   -6.407833|   -9.007054|    0.824000|    0.011995|
|         173|   -6.407963|   -9.007512|    0.824000|    0.011995|
|         174|   -6.408190|   -9.008167|    0.824000|    0.011995|
|         175|   -6.408498|   -9.009076|    0.824000|    0.011995|
|         176|   -6.408873|   -9.010286|    0.824000|    0.011995|
|         177|   -6.409303|   -9.011834|    0.824000|    0.011995|
|         178|   -6.409778|   -9.013745|    0.824000|    0.011995|
|         179|   -6.410296|   -9.016027|    0.824000|    0.011995|
|         180|   -6.410855|   -9.018673|    0.824000|    0.011995|
|         181|   -6.411463|   -9.021662|    0.824000|    0.011995|
|         182|   -6.412130|   -9.024957|    0.824000|    0.011995|
|         183|   -6.412874|   -9.028510|    0.824000|    0.011995|
|         184|   -6.413717|   -9.032260|    0.824000|    0.011995|
|         185|   -6.414685|   -9.036141|    0.824000|    0.011995|
|         186|   -6.415808|   -9.040081|    0.824000|    0.011995|
|         187|   -6.417115|   -9.044007|    0.824000|    0.011995|
|         188|   -6.418637|   -9.047851|    0.824000|    0.011995|
|         189|   -6.420406|   -9.051553|    0.824000|    0.011995|
|         190|   -6.422446|   -9.055062|    0.824000|    0.011995|
|         191|   -6.424780|   -9.058343|    0.824000|    0.011995|
|         192|   -6.427422|   -9.061376|    0.824000|    0.011995|
|         193|   -6.430379|   -9.064160|    0.824000|    0.011995|
|         194|   -6.433650|   -9.066710|    0.824000|    0.011995|
|         195|   -6.437220|   -9.069056|    0.824000|    0.011995|
|         196|   -6.441067|   -9.071245|    0.824000|    0.011995|
|         197|   -6.445153|   -9.073332|    0.824000|    0.011995|
|         198|   -6.449433|   -9.075381|    0.824000|    0.011995|
|         199|   -6.453846|   -9.077461|    0.824000|    0.011994|
|         200|   -6.458324|   -9.079640|    0.824001|    0.011994|
|         201|   -6.462789|   -9.081986|    0.824001|    0.011994|
+-----------------------------------------------------------------------+
|Fixed CL Mode                           |Value                         |
+-----------------------------------------------------------------------+
|Current CL                              |0.824001                      |
|Target CL                               |0.824                         |
|Previous AOA                            |2.76558                       |
|Changed AoA by                          |-2.5349e-06                   |
+-----------------------------------------------------------------------+
+----------------------------------------------------------------+
|  Inner_Iter|    rms[Rho]|     rms[nu]|          CL|          CD|
+----------------------------------------------------------------+
|         202|   -5.780754|   -9.078697|    0.824001|    0.011994|
|         203|   -6.126558|   -9.083924|    0.824001|    0.011994|
|         204|   -6.292172|   -9.087674|    0.824001|    0.011994|
|         205|   -6.330890|   -9.091553|    0.824001|    0.011994|
|         206|   -6.356303|   -9.095808|    0.824001|    0.011994|
|         207|   -6.386948|   -9.100476|    0.824001|    0.011994|
|         208|   -6.418373|   -9.105537|    0.824001|    0.011994|
|         209|   -6.443739|   -9.110948|    0.824001|    0.011994|
|         210|   -6.460240|   -9.116647|    0.824001|    0.011994|
|         211|   -6.469487|   -9.122558|    0.824001|    0.011994|
|         212|   -6.474207|   -9.128598|    0.824001|    0.011994|
|         213|   -6.476265|   -9.134685|    0.824001|    0.011994|
|         214|   -6.476775|   -9.140738|    0.824001|    0.011994|
|         215|   -6.476626|   -9.146667|    0.824001|    0.011994|
|         216|   -6.476581|   -9.152394|    0.824001|    0.011994|
|         217|   -6.477125|   -9.157822|    0.824001|    0.011994|
|         218|   -6.478381|   -9.162861|    0.824001|    0.011994|
|         219|   -6.480214|   -9.167432|    0.824001|    0.011994|
|         220|   -6.482433|   -9.171469|    0.824001|    0.011994|
|         221|   -6.484950|   -9.174926|    0.824001|    0.011994|
|         222|   -6.487826|   -9.177776|    0.824001|    0.011994|
|         223|   -6.491215|   -9.180018|    0.824001|    0.011994|
|         224|   -6.495278|   -9.181676|    0.824001|    0.011994|
|         225|   -6.500123|   -9.182801|    0.824001|    0.011994|
|         226|   -6.505801|   -9.183465|    0.824001|    0.011994|
|         227|   -6.512321|   -9.183758|    0.824001|    0.011994|
|         228|   -6.519677|   -9.183785|    0.824001|    0.011994|
|         229|   -6.527858|   -9.183654|    0.824001|    0.011994|
|         230|   -6.536852|   -9.183479|    0.824001|    0.011994|
|         231|   -6.546644|   -9.183367|    0.824001|    0.011994|
|         232|   -6.557216|   -9.183423|    0.824001|    0.011994|
|         233|   -6.568550|   -9.183741|    0.824001|    0.011994|
|         234|   -6.580627|   -9.184402|    0.824001|    0.011994|
|         235|   -6.593417|   -9.185476|    0.824001|    0.011994|
|         236|   -6.606875|   -9.187019|    0.824001|    0.011994|
|         237|   -6.620928|   -9.189070|    0.824001|    0.011994|
|         238|   -6.635473|   -9.191655|    0.824001|    0.011994|
|         239|   -6.650368|   -9.194780|    0.824001|    0.011994|
|         240|   -6.665438|   -9.198440|    0.824001|    0.011994|
|         241|   -6.680475|   -9.202611|    0.824001|    0.011994|
|         242|   -6.695255|   -9.207254|    0.824001|    0.011994|
|         243|   -6.709545|   -9.212317|    0.824001|    0.011995|
|         244|   -6.723129|   -9.217734|    0.824001|    0.011995|
|         245|   -6.735821|   -9.223424|    0.824001|    0.011995|
|         246|   -6.747474|   -9.229298|    0.824001|    0.011995|
|         247|   -6.757990|   -9.235259|    0.824001|    0.011995|
|         248|   -6.767309|   -9.241204|    0.824001|    0.011995|
|         249|   -6.775410|   -9.247028|    0.824001|    0.011995|
|         250|   -6.782297|   -9.252632|    0.824002|    0.011995|
|         251|   -6.787999|   -9.257926|    0.824002|    0.011995|
|         252|   -6.792564|   -9.262830|    0.824002|    0.011995|
|         253|   -6.796063|   -9.267287|    0.824002|    0.011995|
|         254|   -6.798586|   -9.271260|    0.824002|    0.011995|
|         255|   -6.800243|   -9.274737|    0.824002|    0.011995|
|         256|   -6.801161|   -9.277728|    0.824002|    0.011995|
|         257|   -6.801475|   -9.280269|    0.824002|    0.011995|
|         258|   -6.801322|   -9.282417|    0.824002|    0.011995|
|         259|   -6.800837|   -9.284243|    0.824002|    0.011995|
|         260|   -6.800142|   -9.285826|    0.824002|    0.011995|
|         261|   -6.799347|   -9.287253|    0.824002|    0.011995|
|         262|   -6.798545|   -9.288604|    0.824002|    0.011995|
|         263|   -6.797812|   -9.289956|    0.824002|    0.011995|
|         264|   -6.797211|   -9.291370|    0.824002|    0.011995|
|         265|   -6.796794|   -9.292890|    0.824002|    0.011995|
|         266|   -6.796601|   -9.294541|    0.824002|    0.011995|
|         267|   -6.796664|   -9.296325|    0.824001|    0.011995|
|         268|   -6.797011|   -9.298217|    0.824001|    0.011995|
|         269|   -6.797660|   -9.300174|    0.824001|    0.011995|
|         270|   -6.798630|   -9.302124|    0.824001|    0.011995|
|         271|   -6.799932|   -9.303978|    0.824001|    0.011995|
|         272|   -6.801575|   -9.305630|    0.824001|    0.011995|
|         273|   -6.803565|   -9.306966|    0.824001|    0.011995|
|         274|   -6.805904|   -9.307867|    0.824001|    0.011995|
|         275|   -6.808592|   -9.308222|    0.824001|    0.011995|
|         276|   -6.811627|   -9.307933|    0.824001|    0.011995|
|         277|   -6.815005|   -9.306928|    0.824001|    0.011995|
|         278|   -6.818718|   -9.305167|    0.824001|    0.011995|
|         279|   -6.822758|   -9.302644|    0.824001|    0.011995|
|         280|   -6.827115|   -9.299392|    0.824001|    0.011995|
|         281|   -6.831775|   -9.295480|    0.824001|    0.011995|
|         282|   -6.836724|   -9.291009|    0.824001|    0.011995|
|         283|   -6.841944|   -9.286107|    0.824001|    0.011995|
|         284|   -6.847415|   -9.280914|    0.824001|    0.011995|
|         285|   -6.853115|   -9.275584|    0.824001|    0.011995|
|         286|   -6.859018|   -9.270268|    0.824001|    0.011995|
|         287|   -6.865097|   -9.265112|    0.824001|    0.011995|
|         288|   -6.871323|   -9.260252|    0.824001|    0.011995|
|         289|   -6.877664|   -9.255809|    0.824001|    0.011995|
|         290|   -6.884088|   -9.251886|    0.824001|    0.011995|
|         291|   -6.890559|   -9.248570|    0.824001|    0.011995|
|         292|   -6.897044|   -9.245930|    0.824001|    0.011995|
|         293|   -6.903509|   -9.244017|    0.824001|    0.011995|
|         294|   -6.909921|   -9.242866|    0.824001|    0.011995|
|         295|   -6.916248|   -9.242496|    0.824001|    0.011995|
|         296|   -6.922462|   -9.242911|    0.824001|    0.011995|
|         297|   -6.928537|   -9.244105|    0.824001|    0.011995|
|         298|   -6.934449|   -9.246055|    0.824001|    0.011995|
|         299|   -6.940179|   -9.248730|    0.824001|    0.011995|
|         300|   -6.945712|   -9.252090|    0.824001|    0.011995|
|         301|   -6.951035|   -9.256085|    0.824001|    0.011995|
+-----------------------------------------------------------------------+
|Fixed CL Mode                           |Value                         |
+-----------------------------------------------------------------------+
|Current CL                              |0.824001                      |
|Target CL                               |0.824                         |
|Previous AOA                            |2.76558                       |
|Changed AoA by                          |-3.51771e-06                  |
+-----------------------------------------------------------------------+
+----------------------------------------------------------------+
|  Inner_Iter|    rms[Rho]|     rms[nu]|          CL|          CD|
+----------------------------------------------------------------+
|         302|   -5.646432|   -9.237691|    0.824001|    0.011995|
|         303|   -6.027107|   -9.253499|    0.824001|    0.011995|
|         304|   -6.261787|   -9.262230|    0.824001|    0.011995|
|         305|   -6.335646|   -9.269870|    0.824001|    0.011995|
|         306|   -6.386180|   -9.277294|    0.824001|    0.011994|
|         307|   -6.450812|   -9.284660|    0.824001|    0.011994|
|         308|   -6.528465|   -9.291985|    0.824001|    0.011994|
|         309|   -6.606381|   -9.299258|    0.824001|    0.011994|
|         310|   -6.670559|   -9.306457|    0.824001|    0.011994|
|         311|   -6.715914|   -9.313540|    0.824001|    0.011994|
|         312|   -6.745404|   -9.320473|    0.824001|    0.011994|
|         313|   -6.762834|   -9.327246|    0.824001|    0.011994|
|         314|   -6.771359|   -9.333870|    0.824001|    0.011994|
|         315|   -6.775155|   -9.340355|    0.824001|    0.011994|
|         316|   -6.778838|   -9.346697|    0.824001|    0.011994|
|         317|   -6.785516|   -9.352888|    0.824001|    0.011994|
|         318|   -6.795874|   -9.358932|    0.824001|    0.011994|
|         319|   -6.808619|   -9.364849|    0.824001|    0.011994|
|         320|   -6.821684|   -9.370675|    0.824001|    0.011994|
|         321|   -6.833508|   -9.376446|    0.824001|    0.011994|
|         322|   -6.843707|   -9.382192|    0.824001|    0.011994|
|         323|   -6.852825|   -9.387936|    0.824001|    0.011994|
|         324|   -6.861592|   -9.393692|    0.824001|    0.011994|
|         325|   -6.870353|   -9.399475|    0.824001|    0.011994|
|         326|   -6.878957|   -9.405301|    0.824001|    0.011994|
|         327|   -6.886969|   -9.411185|    0.824001|    0.011994|
|         328|   -6.893942|   -9.417145|    0.824001|    0.011994|
|         329|   -6.899575|   -9.423197|    0.824001|    0.011994|
|         330|   -6.903759|   -9.429351|    0.824001|    0.011994|
|         331|   -6.906564|   -9.435616|    0.824001|    0.011994|
|         332|   -6.908225|   -9.441989|    0.824001|    0.011994|
|         333|   -6.909102|   -9.448458|    0.824002|    0.011994|
|         334|   -6.909615|   -9.455003|    0.824002|    0.011994|
|         335|   -6.910156|   -9.461590|    0.824002|    0.011994|
|         336|   -6.911015|   -9.468177|    0.824002|    0.011994|
|         337|   -6.912334|   -9.474714|    0.824002|    0.011994|
|         338|   -6.914104|   -9.481146|    0.824002|    0.011994|
|         339|   -6.916190|   -9.487414|    0.824002|    0.011994|
|         340|   -6.918375|   -9.493458|    0.824002|    0.011994|
|         341|   -6.920414|   -9.499222|    0.824002|    0.011994|
|         342|   -6.922096|   -9.504654|    0.824002|    0.011994|
|         343|   -6.923297|   -9.509709|    0.824002|    0.011994|
|         344|   -6.924015|   -9.514348|    0.824002|    0.011994|
|         345|   -6.924369|   -9.518543|    0.824002|    0.011994|
|         346|   -6.924562|   -9.522274|    0.824002|    0.011994|
|         347|   -6.924835|   -9.525532|    0.824002|    0.011994|
|         348|   -6.925405|   -9.528312|    0.824002|    0.011994|
|         349|   -6.926432|   -9.530622|    0.824002|    0.011994|
|         350|   -6.927996|   -9.532476|    0.824002|    0.011994|
|         351|   -6.930104|   -9.533898|    0.824002|    0.011994|
|         352|   -6.932706|   -9.534920|    0.824002|    0.011994|
|         353|   -6.935718|   -9.535582|    0.824002|    0.011994|
|         354|   -6.939055|   -9.535931|    0.824002|    0.011994|
|         355|   -6.942647|   -9.536022|    0.824002|    0.011994|
|         356|   -6.946453|   -9.535913|    0.824002|    0.011994|
|         357|   -6.950464|   -9.535671|    0.824002|    0.011994|
|         358|   -6.954699|   -9.535361|    0.824002|    0.011994|
|         359|   -6.959195|   -9.535053|    0.824002|    0.011994|
|         360|   -6.963993|   -9.534817|    0.824002|    0.011994|
|         361|   -6.969132|   -9.534725|    0.824002|    0.011994|
|         362|   -6.974638|   -9.534841|    0.824002|    0.011994|
|         363|   -6.980526|   -9.535223|    0.824002|    0.011994|
|         364|   -6.986792|   -9.535927|    0.824002|    0.011994|
|         365|   -6.993424|   -9.537003|    0.824002|    0.011994|
|         366|   -7.000400|   -9.538490|    0.824002|    0.011994|
|         367|   -7.007691|   -9.540422|    0.824002|    0.011994|
|         368|   -7.015264|   -9.542821|    0.824002|    0.011994|
|         369|   -7.023085|   -9.545697|    0.824002|    0.011994|
|         370|   -7.031114|   -9.549050|    0.824002|    0.011994|
|         371|   -7.039308|   -9.552867|    0.824002|    0.011994|
|         372|   -7.047619|   -9.557119|    0.824002|    0.011994|
|         373|   -7.055992|   -9.561764|    0.824002|    0.011994|
|         374|   -7.064366|   -9.566743|    0.824002|    0.011994|
|         375|   -7.072673|   -9.571981|    0.824002|    0.011994|
|         376|   -7.080841|   -9.577385|    0.824001|    0.011994|
|         377|   -7.088794|   -9.582850|    0.824001|    0.011994|
|         378|   -7.096452|   -9.588253|    0.824001|    0.011994|
|         379|   -7.103739|   -9.593465|    0.824001|    0.011994|
|         380|   -7.110582|   -9.598347|    0.824001|    0.011994|
|         381|   -7.116912|   -9.602762|    0.824001|    0.011994|
|         382|   -7.122671|   -9.606578|    0.824001|    0.011995|
|         383|   -7.127814|   -9.609682|    0.824001|    0.011995|
|         384|   -7.132306|   -9.611978|    0.824001|    0.011995|
|         385|   -7.136129|   -9.613405|    0.824001|    0.011995|
|         386|   -7.139282|   -9.613933|    0.824001|    0.011995|
|         387|   -7.141776|   -9.613572|    0.824001|    0.011995|
|         388|   -7.143639|   -9.612368|    0.824001|    0.011995|
|         389|   -7.144911|   -9.610400|    0.824001|    0.011995|
|         390|   -7.145643|   -9.607776|    0.824001|    0.011995|
|         391|   -7.145892|   -9.604622|    0.824001|    0.011995|
|         392|   -7.145723|   -9.601080|    0.824001|    0.011995|
|         393|   -7.145199|   -9.597294|    0.824001|    0.011995|
|         394|   -7.144388|   -9.593407|    0.824001|    0.011995|
|         395|   -7.143352|   -9.589553|    0.824001|    0.011995|
|         396|   -7.142151|   -9.585855|    0.824001|    0.011995|
|         397|   -7.140840|   -9.582422|    0.824001|    0.011995|
|         398|   -7.139468|   -9.579346|    0.824001|    0.011995|
|         399|   -7.138078|   -9.576702|    0.824001|    0.011995|
|         400|   -7.136708|   -9.574549|    0.824001|    0.011995|
|         401|   -7.135390|   -9.572928|    0.824001|    0.011994|
+-----------------------------------------------------------------------+
|Fixed CL Mode                           |Value                         |
+-----------------------------------------------------------------------+
|Current CL                              |0.824001                      |
|Target CL                               |0.824                         |
|Previous AOA                            |2.76558                       |
|Changed AoA by                          |-4.52274e-06                  |
+-----------------------------------------------------------------------+
+----------------------------------------------------------------+
|  Inner_Iter|    rms[Rho]|     rms[nu]|          CL|          CD|
+----------------------------------------------------------------+
|         402|   -5.537915|   -9.451162|    0.824001|    0.011994|
|         403|   -5.921753|   -9.504037|    0.824001|    0.011994|
|         404|   -6.163421|   -9.522697|    0.824001|    0.011994|
|         405|   -6.240297|   -9.533951|    0.824001|    0.011994|
|         406|   -6.292605|   -9.542532|    0.824001|    0.011994|
|         407|   -6.360579|   -9.549626|    0.824001|    0.011994|
|         408|   -6.444199|   -9.555694|    0.824001|    0.011994|
|         409|   -6.530720|   -9.561057|    0.824001|    0.011994|
|         410|   -6.604430|   -9.565923|    0.824001|    0.011994|
|         411|   -6.657983|   -9.570354|    0.824001|    0.011994|
|         412|   -6.693370|   -9.574388|    0.824001|    0.011994|
|         413|   -6.714307|   -9.578152|    0.824001|    0.011994|
|         414|   -6.724276|   -9.581826|    0.824001|    0.011994|
|         415|   -6.728498|   -9.585510|    0.824001|    0.011994|
|         416|   -6.732954|   -9.589177|    0.824001|    0.011994|
|         417|   -6.741729|   -9.592717|    0.824001|    0.011994|
|         418|   -6.755831|   -9.596032|    0.824001|    0.011994|
|         419|   -6.773714|   -9.599076|    0.824001|    0.011994|
|         420|   -6.792701|   -9.601837|    0.824001|    0.011994|
|         421|   -6.810628|   -9.604307|    0.824001|    0.011994|
|         422|   -6.826886|   -9.606454|    0.824001|    0.011994|
|         423|   -6.842241|   -9.608219|    0.824001|    0.011994|
|         424|   -6.857820|   -9.609540|    0.824001|    0.011994|
|         425|   -6.874205|   -9.610376|    0.824001|    0.011994|
|         426|   -6.891171|   -9.610723|    0.824001|    0.011994|
|         427|   -6.907927|   -9.610610|    0.824001|    0.011994|
|         428|   -6.923531|   -9.610097|    0.824001|    0.011994|
|         429|   -6.937214|   -9.609263|    0.824001|    0.011994|
|         430|   -6.948546|   -9.608203|    0.824001|    0.011994|
|         431|   -6.957510|   -9.607015|    0.824001|    0.011994|
|         432|   -6.964507|   -9.605793|    0.824001|    0.011994|
|         433|   -6.970287|   -9.604616|    0.824001|    0.011994|
|         434|   -6.975789|   -9.603548|    0.824001|    0.011994|
|         435|   -6.981923|   -9.602630|    0.824001|    0.011994|
|         436|   -6.989389|   -9.601888|    0.824001|    0.011994|
|         437|   -6.998558|   -9.601329|    0.824001|    0.011994|
|         438|   -7.009441|   -9.600947|    0.824001|    0.011994|
|         439|   -7.021696|   -9.600729|    0.824001|    0.011994|
|         440|   -7.034682|   -9.600653|    0.824001|    0.011994|
|         441|   -7.047544|   -9.600698|    0.824001|    0.011994|
|         442|   -7.059382|   -9.600839|    0.824001|    0.011994|
|         443|   -7.069454|   -9.601048|    0.824001|    0.011994|
|         444|   -7.077381|   -9.601305|    0.824001|    0.011994|
|         445|   -7.083250|   -9.601583|    0.824001|    0.011994|
|         446|   -7.087556|   -9.601852|    0.824001|    0.011994|
|         447|   -7.091018|   -9.602076|    0.824001|    0.011994|
|         448|   -7.094355|   -9.602219|    0.824001|    0.011994|
|         449|   -7.098111|   -9.602240|    0.824001|    0.011994|
|         450|   -7.102568|   -9.602094|    0.824001|    0.011994|
|         451|   -7.107736|   -9.601740|    0.824001|    0.011994|
|         452|   -7.113407|   -9.601136|    0.824001|    0.011994|
|         453|   -7.119243|   -9.600249|    0.824001|    0.011994|
|         454|   -7.124870|   -9.599053|    0.824001|    0.011994|
|         455|   -7.129967|   -9.597535|    0.824001|    0.011994|
|         456|   -7.134337|   -9.595695|    0.824001|    0.011994|
|         457|   -7.137922|   -9.593546|    0.824001|    0.011994|
|         458|   -7.140796|   -9.591117|    0.824001|    0.011994|
|         459|   -7.143119|   -9.588449|    0.824001|    0.011994|
|         460|   -7.145090|   -9.585609|    0.824001|    0.011994|
|         461|   -7.146895|   -9.582658|    0.824001|    0.011994|
|         462|   -7.148685|   -9.579668|    0.824001|    0.011994|
|         463|   -7.150561|   -9.576724|    0.824001|    0.011994|
|         464|   -7.152581|   -9.573907|    0.824001|    0.011994|
|         465|   -7.154770|   -9.571302|    0.824001|    0.011994|
|         466|   -7.157135|   -9.568991|    0.824001|    0.011994|
|         467|   -7.159677|   -9.567050|    0.824001|    0.011994|
|         468|   -7.162401|   -9.565547|    0.824001|    0.011994|
|         469|   -7.165320|   -9.564544|    0.824001|    0.011994|
|         470|   -7.168451|   -9.564089|    0.824001|    0.011994|
|         471|   -7.171816|   -9.564218|    0.824001|    0.011994|
|         472|   -7.175434|   -9.564954|    0.824001|    0.011994|
|         473|   -7.179322|   -9.566305|    0.824001|    0.011994|
|         474|   -7.183492|   -9.568262|    0.824001|    0.011994|
|         475|   -7.187949|   -9.570798|    0.824001|    0.011994|
|         476|   -7.192692|   -9.573869|    0.824001|    0.011994|
|         477|   -7.197717|   -9.577415|    0.824000|    0.011994|
|         478|   -7.203013|   -9.581354|    0.824000|    0.011994|
|         479|   -7.208569|   -9.585591|    0.824000|    0.011994|
|         480|   -7.214370|   -9.590013|    0.824000|    0.011994|
|         481|   -7.220400|   -9.594497|    0.824000|    0.011994|
|         482|   -7.226638|   -9.598910|    0.824000|    0.011994|
|         483|   -7.233064|   -9.603119|    0.824000|    0.011994|
|         484|   -7.239654|   -9.606993|    0.824000|    0.011994|
|         485|   -7.246381|   -9.610415|    0.824000|    0.011994|
|         486|   -7.253214|   -9.613285|    0.824000|    0.011994|
|         487|   -7.260123|   -9.615532|    0.824000|    0.011994|
|         488|   -7.267072|   -9.617115|    0.824000|    0.011994|
|         489|   -7.274024|   -9.618028|    0.824000|    0.011994|
|         490|   -7.280939|   -9.618301|    0.824000|    0.011994|
|         491|   -7.287776|   -9.617997|    0.824000|    0.011994|
|         492|   -7.294492|   -9.617208|    0.824000|    0.011994|
|         493|   -7.301043|   -9.616045|    0.824000|    0.011994|
|         494|   -7.307382|   -9.614637|    0.824000|    0.011994|
|         495|   -7.313466|   -9.613117|    0.824000|    0.011994|
|         496|   -7.319248|   -9.611618|    0.824000|    0.011994|
|         497|   -7.324685|   -9.610269|    0.824000|    0.011994|
|         498|   -7.329736|   -9.609187|    0.824000|    0.011994|
|         499|   -7.334361|   -9.608476|    0.824000|    0.011994|
|         500|   -7.338528|   -9.608221|    0.824000|    0.011994|
|         501|   -7.342208|   -9.608494|    0.824000|    0.011994|
|         502|   -7.345379|   -9.609347|    0.824000|    0.011994|
|         503|   -7.348027|   -9.610813|    0.824000|    0.011994|
|         504|   -7.350146|   -9.612910|    0.824000|    0.011994|
|         505|   -7.351737|   -9.615639|    0.824000|    0.011994|
|         506|   -7.352812|   -9.618985|    0.824000|    0.011994|
|         507|   -7.353389|   -9.622916|    0.824000|    0.011994|
|         508|   -7.353493|   -9.627388|    0.824000|    0.011994|
|         509|   -7.353158|   -9.632343|    0.824000|    0.011994|
|         510|   -7.352424|   -9.637713|    0.824000|    0.011994|
|         511|   -7.351333|   -9.643419|    0.824000|    0.011994|
|         512|   -7.349934|   -9.649371|    0.824001|    0.011994|
|         513|   -7.348276|   -9.655477|    0.824001|    0.011994|
|         514|   -7.346410|   -9.661640|    0.824001|    0.011994|
|         515|   -7.344390|   -9.667762|    0.824001|    0.011994|
|         516|   -7.342266|   -9.673746|    0.824001|    0.011994|
|         517|   -7.340088|   -9.679504|    0.824001|    0.011994|
|         518|   -7.337906|   -9.684956|    0.824001|    0.011994|
|         519|   -7.335763|   -9.690032|    0.824001|    0.011994|
|         520|   -7.333705|   -9.694678|    0.824001|    0.011994|
|         521|   -7.331770|   -9.698857|    0.824001|    0.011994|
|         522|   -7.329995|   -9.702547|    0.824001|    0.011994|
|         523|   -7.328413|   -9.705744|    0.824001|    0.011994|
|         524|   -7.327055|   -9.708459|    0.824001|    0.011994|
|         525|   -7.325947|   -9.710715|    0.824001|    0.011994|
|         526|   -7.325113|   -9.712548|    0.824001|    0.011994|
|         527|   -7.324573|   -9.714002|    0.824001|    0.011994|
|         528|   -7.324345|   -9.715124|    0.824001|    0.011994|
|         529|   -7.324441|   -9.715966|    0.824001|    0.011994|
|         530|   -7.324876|   -9.716577|    0.824001|    0.011994|
|         531|   -7.325656|   -9.717006|    0.824001|    0.011994|
|         532|   -7.326789|   -9.717298|    0.824001|    0.011994|
|         533|   -7.328278|   -9.717492|    0.824001|    0.011994|
|         534|   -7.330124|   -9.717622|    0.824001|    0.011994|
|         535|   -7.332326|   -9.717718|    0.824001|    0.011994|
|         536|   -7.334879|   -9.717806|    0.824001|    0.011994|
|         537|   -7.337777|   -9.717904|    0.824001|    0.011994|
|         538|   -7.341010|   -9.718032|    0.824001|    0.011994|
|         539|   -7.344565|   -9.718203|    0.824001|    0.011994|
|         540|   -7.348426|   -9.718431|    0.824001|    0.011994|
|         541|   -7.352575|   -9.718729|    0.824001|    0.011994|
|         542|   -7.356990|   -9.719112|    0.824001|    0.011994|
|         543|   -7.361645|   -9.719593|    0.824000|    0.011994|
|         544|   -7.366513|   -9.720187|    0.824000|    0.011994|
|         545|   -7.371561|   -9.720912|    0.824000|    0.011994|
|         546|   -7.376754|   -9.721785|    0.824000|    0.011994|
|         547|   -7.382054|   -9.722825|    0.824000|    0.011994|
|         548|   -7.387421|   -9.724048|    0.824000|    0.011994|
|         549|   -7.392809|   -9.725472|    0.824000|    0.011994|
|         550|   -7.398173|   -9.727110|    0.824000|    0.011994|
|         551|   -7.403467|   -9.728974|    0.824000|    0.011994|
|         552|   -7.408640|   -9.731068|    0.824000|    0.011994|
|         553|   -7.413645|   -9.733392|    0.824000|    0.011994|
|         554|   -7.418434|   -9.735939|    0.824000|    0.011994|
|         555|   -7.422959|   -9.738690|    0.824000|    0.011994|
|         556|   -7.427178|   -9.741620|    0.824000|    0.011994|
|         557|   -7.431050|   -9.744692|    0.824000|    0.011994|
|         558|   -7.434541|   -9.747859|    0.824000|    0.011994|
|         559|   -7.437622|   -9.751064|    0.824000|    0.011994|
|         560|   -7.440269|   -9.754242|    0.824000|    0.011994|
|         561|   -7.442469|   -9.757318|    0.824000|    0.011994|
|         562|   -7.444213|   -9.760213|    0.824000|    0.011994|
|         563|   -7.445503|   -9.762845|    0.824000|    0.011994|
|         564|   -7.446347|   -9.765134|    0.824000|    0.011994|
|         565|   -7.446760|   -9.767004|    0.824000|    0.011994|
|         566|   -7.446767|   -9.768390|    0.824000|    0.011994|
|         567|   -7.446396|   -9.769241|    0.824000|    0.011994|
|         568|   -7.445681|   -9.769521|    0.824000|    0.011994|
|         569|   -7.444663|   -9.769216|    0.824000|    0.011994|
|         570|   -7.443382|   -9.768331|    0.824000|    0.011994|
|         571|   -7.441883|   -9.766896|    0.824000|    0.011994|
|         572|   -7.440212|   -9.764955|    0.824000|    0.011994|
|         573|   -7.438415|   -9.762574|    0.824000|    0.011994|
|         574|   -7.436537|   -9.759830|    0.824000|    0.011994|
|         575|   -7.434623|   -9.756807|    0.824000|    0.011994|
|         576|   -7.432716|   -9.753597|    0.824000|    0.011994|
|         577|   -7.430856|   -9.750290|    0.824000|    0.011994|
|         578|   -7.429082|   -9.746975|    0.824000|    0.011994|
|         579|   -7.427430|   -9.743734|    0.824000|    0.011994|
|         580|   -7.425934|   -9.740639|    0.824000|    0.011994|
|         581|   -7.424625|   -9.737754|    0.824000|    0.011994|
|         582|   -7.423529|   -9.735130|    0.824000|    0.011994|
|         583|   -7.422674|   -9.732808|    0.824000|    0.011995|
|         584|   -7.422081|   -9.730817|    0.824000|    0.011995|
|         585|   -7.421770|   -9.729172|    0.824000|    0.011995|
|         586|   -7.421759|   -9.727880|    0.824000|    0.011995|
|         587|   -7.422065|   -9.726937|    0.824000|    0.011995|
|         588|   -7.422698|   -9.726329|    0.824000|    0.011995|
|         589|   -7.423672|   -9.726036|    0.824000|    0.011995|
|         590|   -7.424993|   -9.726030|    0.824000|    0.011995|
|         591|   -7.426668|   -9.726277|    0.824000|    0.011995|
|         592|   -7.428701|   -9.726740|    0.824000|    0.011995|
|         593|   -7.431094|   -9.727380|    0.824000|    0.011995|
|         594|   -7.433846|   -9.728155|    0.824000|    0.011995|
|         595|   -7.436955|   -9.729026|    0.824000|    0.011995|
|         596|   -7.440415|   -9.729952|    0.824000|    0.011995|
|         597|   -7.444218|   -9.730900|    0.824000|    0.011995|
|         598|   -7.448351|   -9.731836|    0.824000|    0.011995|
|         599|   -7.452803|   -9.732735|    0.824000|    0.011995|
|         600|   -7.457555|   -9.733574|    0.824000|    0.011995|
|         601|   -7.462586|   -9.734339|    0.824000|    0.011995|
|         602|   -7.467872|   -9.735020|    0.824000|    0.011995|
|         603|   -7.473384|   -9.735613|    0.824000|    0.011995|
|         604|   -7.479092|   -9.736118|    0.824000|    0.011995|
|         605|   -7.484957|   -9.736543|    0.824000|    0.011995|
|         606|   -7.490939|   -9.736896|    0.824000|    0.011995|
|         607|   -7.496995|   -9.737190|    0.824000|    0.011995|
|         608|   -7.503076|   -9.737440|    0.824000|    0.011995|
|         609|   -7.509130|   -9.737663|    0.824000|    0.011995|
|         610|   -7.515101|   -9.737875|    0.824000|    0.011994|
|         611|   -7.520935|   -9.738093|    0.824000|    0.011994|
|         612|   -7.526573|   -9.738334|    0.824000|    0.011994|
|         613|   -7.531956|   -9.738614|    0.824000|    0.011994|
|         614|   -7.537029|   -9.738947|    0.824000|    0.011994|
|         615|   -7.541740|   -9.739346|    0.824000|    0.011994|
|         616|   -7.546039|   -9.739823|    0.824000|    0.011994|
|         617|   -7.549884|   -9.740388|    0.824000|    0.011994|
|         618|   -7.553242|   -9.741050|    0.824000|    0.011994|
|         619|   -7.556089|   -9.741815|    0.824000|    0.011994|
|         620|   -7.558409|   -9.742688|    0.824000|    0.011994|
|         621|   -7.560200|   -9.743674|    0.824000|    0.011994|
|         622|   -7.561469|   -9.744775|    0.824000|    0.011994|
|         623|   -7.562236|   -9.745990|    0.824000|    0.011994|
|         624|   -7.562529|   -9.747321|    0.824000|    0.011994|
|         625|   -7.562387|   -9.748764|    0.824000|    0.011994|
|         626|   -7.561855|   -9.750316|    0.824000|    0.011994|
|         627|   -7.560986|   -9.751973|    0.824000|    0.011994|
|         628|   -7.559836|   -9.753729|    0.824000|    0.011994|
|         629|   -7.558465|   -9.755578|    0.824000|    0.011994|
|         630|   -7.556932|   -9.757511|    0.824000|    0.011994|
|         631|   -7.555298|   -9.759522|    0.824000|    0.011994|
|         632|   -7.553622|   -9.761602|    0.824000|    0.011994|
|         633|   -7.551962|   -9.763744|    0.824000|    0.011994|
|         634|   -7.550370|   -9.765940|    0.824000|    0.011994|
|         635|   -7.548897|   -9.768183|    0.824000|    0.011994|
|         636|   -7.547589|   -9.770467|    0.824000|    0.011994|
|         637|   -7.546488|   -9.772788|    0.824000|    0.011994|
|         638|   -7.545632|   -9.775143|    0.824000|    0.011994|
|         639|   -7.545053|   -9.777529|    0.824000|    0.011994|
|         640|   -7.544782|   -9.779947|    0.824000|    0.011994|
|         641|   -7.544844|   -9.782400|    0.824000|    0.011994|
|         642|   -7.545261|   -9.784891|    0.824000|    0.011994|
|         643|   -7.546051|   -9.787425|    0.824000|    0.011994|
|         644|   -7.547228|   -9.790009|    0.824000|    0.011994|
|         645|   -7.548804|   -9.792651|    0.824000|    0.011994|
|         646|   -7.550788|   -9.795360|    0.824000|    0.011994|
|         647|   -7.553185|   -9.798146|    0.824000|    0.011994|
|         648|   -7.555999|   -9.801018|    0.824000|    0.011994|
|         649|   -7.559229|   -9.803986|    0.824000|    0.011994|
|         650|   -7.562875|   -9.807061|    0.824000|    0.011994|
|         651|   -7.566931|   -9.810252|    0.824000|    0.011994|
|         652|   -7.571391|   -9.813567|    0.824000|    0.011994|
|         653|   -7.576244|   -9.817015|    0.824000|    0.011994|
|         654|   -7.581481|   -9.820603|    0.824000|    0.011994|
|         655|   -7.587086|   -9.824337|    0.824000|    0.011994|
|         656|   -7.593042|   -9.828222|    0.824000|    0.011994|
|         657|   -7.599332|   -9.832264|    0.824000|    0.011994|
|         658|   -7.605932|   -9.836465|    0.824000|    0.011994|
|         659|   -7.612817|   -9.840829|    0.824000|    0.011994|
|         660|   -7.619961|   -9.845358|    0.824000|    0.011994|
|         661|   -7.627331|   -9.850053|    0.824000|    0.011994|
|         662|   -7.634895|   -9.854918|    0.824000|    0.011994|
|         663|   -7.642615|   -9.859952|    0.824000|    0.011994|
|         664|   -7.650449|   -9.865157|    0.824000|    0.011994|
|         665|   -7.658355|   -9.870534|    0.824000|    0.011994|
|         666|   -7.666286|   -9.876083|    0.824000|    0.011994|
|         667|   -7.674190|   -9.881805|    0.824000|    0.011994|
|         668|   -7.682017|   -9.887701|    0.824000|    0.011994|
|         669|   -7.689711|   -9.893771|    0.824000|    0.011994|
|         670|   -7.697218|   -9.900016|    0.824000|    0.011994|
|         671|   -7.704480|   -9.906435|    0.824000|    0.011994|
|         672|   -7.711443|   -9.913029|    0.824000|    0.011994|
|         673|   -7.718053|   -9.919796|    0.824000|    0.011994|
|         674|   -7.724259|   -9.926736|    0.824000|    0.011994|
|         675|   -7.730017|   -9.933845|    0.824000|    0.011994|
|         676|   -7.735287|   -9.941123|    0.824000|    0.011994|
|         677|   -7.740037|   -9.948565|    0.824000|    0.011994|
|         678|   -7.744244|   -9.956166|    0.824000|    0.011994|
|         679|   -7.747896|   -9.963923|    0.824000|    0.011994|
|         680|   -7.750990|   -9.971829|    0.824000|    0.011994|
|         681|   -7.753534|   -9.979878|    0.824000|    0.011994|
|         682|   -7.755547|   -9.988061|    0.824000|    0.011994|
|         683|   -7.757059|   -9.996371|    0.824000|    0.011994|
|         684|   -7.758107|  -10.004799|    0.824000|    0.011994|
|         685|   -7.758737|  -10.013335|    0.824000|    0.011994|
|         686|   -7.759003|  -10.021969|    0.824000|    0.011994|
|         687|   -7.758962|  -10.030689|    0.824000|    0.011994|
|         688|   -7.758676|  -10.039485|    0.824000|    0.011994|
|         689|   -7.758209|  -10.048345|    0.824000|    0.011994|
|         690|   -7.757624|  -10.057256|    0.824000|    0.011994|
|         691|   -7.756985|  -10.066207|    0.824000|    0.011994|
|         692|   -7.756354|  -10.075183|    0.824000|    0.011994|
|         693|   -7.755791|  -10.084173|    0.824000|    0.011994|
|         694|   -7.755351|  -10.093163|    0.824000|    0.011994|
|         695|   -7.755088|  -10.102137|    0.824000|    0.011994|
|         696|   -7.755048|  -10.111083|    0.824000|    0.011994|
|         697|   -7.755277|  -10.119985|    0.824000|    0.011994|
|         698|   -7.755814|  -10.128829|    0.824000|    0.011994|
|         699|   -7.756693|  -10.137598|    0.824000|    0.011994|
|         700|   -7.757945|  -10.146277|    0.824000|    0.011994|
|         701|   -7.759595|  -10.154849|    0.824000|    0.011995|
|         702|   -7.761665|  -10.163298|    0.824000|    0.011995|
|         703|   -7.764170|  -10.171608|    0.824000|    0.011995|
|         704|   -7.767123|  -10.179762|    0.824000|    0.011995|
|         705|   -7.770529|  -10.187743|    0.824000|    0.011995|
|         706|   -7.774392|  -10.195536|    0.824000|    0.011995|
|         707|   -7.778707|  -10.203125|    0.824000|    0.011995|
|         708|   -7.783467|  -10.210495|    0.824000|    0.011995|
|         709|   -7.788658|  -10.217631|    0.824000|    0.011995|
|         710|   -7.794260|  -10.224520|    0.824000|    0.011995|
|         711|   -7.800248|  -10.231149|    0.824000|    0.011995|
|         712|   -7.806590|  -10.237506|    0.824000|    0.011995|
|         713|   -7.813250|  -10.243580|    0.824000|    0.011995|
|         714|   -7.820181|  -10.249361|    0.824000|    0.011995|
|         715|   -7.827332|  -10.254839|    0.824000|    0.011995|
|         716|   -7.834646|  -10.260007|    0.824000|    0.011995|
|         717|   -7.842057|  -10.264855|    0.824000|    0.011995|
|         718|   -7.849496|  -10.269377|    0.824000|    0.011995|
|         719|   -7.856886|  -10.273566|    0.824000|    0.011995|
|         720|   -7.864148|  -10.277417|    0.824000|    0.011995|
|         721|   -7.871200|  -10.280924|    0.824000|    0.011994|
|         722|   -7.877961|  -10.284084|    0.824000|    0.011994|
|         723|   -7.884350|  -10.286893|    0.824000|    0.011994|
|         724|   -7.890292|  -10.289352|    0.824000|    0.011994|
|         725|   -7.895719|  -10.291460|    0.824000|    0.011994|
|         726|   -7.900575|  -10.293221|    0.824000|    0.011994|
|         727|   -7.904813|  -10.294640|    0.824000|    0.011994|
|         728|   -7.908404|  -10.295725|    0.824000|    0.011994|
|         729|   -7.911335|  -10.296489|    0.824000|    0.011994|
|         730|   -7.913606|  -10.296946|    0.824000|    0.011994|
|         731|   -7.915237|  -10.297113|    0.824000|    0.011994|
|         732|   -7.916262|  -10.297014|    0.824000|    0.011994|
|         733|   -7.916727|  -10.296671|    0.824000|    0.011994|
|         734|   -7.916690|  -10.296114|    0.824000|    0.011994|
|         735|   -7.916216|  -10.295373|    0.824000|    0.011994|
|         736|   -7.915376|  -10.294481|    0.824000|    0.011994|
|         737|   -7.914244|  -10.293473|    0.824000|    0.011994|
|         738|   -7.912894|  -10.292384|    0.824000|    0.011994|
|         739|   -7.911397|  -10.291252|    0.824000|    0.011994|
|         740|   -7.909821|  -10.290115|    0.824000|    0.011994|
|         741|   -7.908230|  -10.289009|    0.824000|    0.011994|
|         742|   -7.906680|  -10.287972|    0.824000|    0.011994|
|         743|   -7.905222|  -10.287040|    0.824000|    0.011994|
|         744|   -7.903900|  -10.286247|    0.824000|    0.011994|
|         745|   -7.902751|  -10.285627|    0.824000|    0.011994|
|         746|   -7.901805|  -10.285210|    0.824000|    0.011994|
|         747|   -7.901085|  -10.285026|    0.824000|    0.011994|
|         748|   -7.900608|  -10.285101|    0.824000|    0.011994|
|         749|   -7.900386|  -10.285462|    0.824000|    0.011994|
|         750|   -7.900423|  -10.286129|    0.824000|    0.011994|
|         751|   -7.900719|  -10.287124|    0.824000|    0.011994|
|         752|   -7.901270|  -10.288464|    0.824000|    0.011994|
|         753|   -7.902066|  -10.290164|    0.824000|    0.011994|
|         754|   -7.903092|  -10.292237|    0.824000|    0.011994|
|         755|   -7.904330|  -10.294693|    0.824000|    0.011994|
|         756|   -7.905759|  -10.297539|    0.824000|    0.011994|
|         757|   -7.907352|  -10.300780|    0.824000|    0.011994|
|         758|   -7.909082|  -10.304419|    0.824000|    0.011994|
|         759|   -7.910918|  -10.308454|    0.824000|    0.011994|
|         760|   -7.912826|  -10.312881|    0.824000|    0.011994|
|         761|   -7.914771|  -10.317694|    0.824000|    0.011994|
|         762|   -7.916717|  -10.322881|    0.824000|    0.011994|
|         763|   -7.918628|  -10.328428|    0.824000|    0.011994|
|         764|   -7.920466|  -10.334317|    0.824000|    0.011994|
|         765|   -7.922195|  -10.340524|    0.824000|    0.011994|
|         766|   -7.923780|  -10.347024|    0.824000|    0.011994|
|         767|   -7.925188|  -10.353784|    0.824000|    0.011994|
|         768|   -7.926391|  -10.360767|    0.824000|    0.011994|
|         769|   -7.927360|  -10.367931|    0.824000|    0.011994|
|         770|   -7.928075|  -10.375229|    0.824000|    0.011994|
|         771|   -7.928518|  -10.382609|    0.824000|    0.011994|
|         772|   -7.928676|  -10.390014|    0.824000|    0.011994|
|         773|   -7.928544|  -10.397383|    0.824000|    0.011994|
|         774|   -7.928119|  -10.404651|    0.824000|    0.011994|
|         775|   -7.927408|  -10.411751|    0.824000|    0.011994|
|         776|   -7.926419|  -10.418615|    0.824000|    0.011994|
|         777|   -7.925167|  -10.425176|    0.824000|    0.011994|
|         778|   -7.923672|  -10.431367|    0.824000|    0.011994|
|         779|   -7.921957|  -10.437130|    0.824000|    0.011994|
|         780|   -7.920049|  -10.442409|    0.824000|    0.011994|
|         781|   -7.917977|  -10.447160|    0.824000|    0.011994|
|         782|   -7.915771|  -10.451347|    0.824000|    0.011994|
|         783|   -7.913465|  -10.454948|    0.824000|    0.011994|
|         784|   -7.911090|  -10.457952|    0.824000|    0.011994|
|         785|   -7.908679|  -10.460363|    0.824000|    0.011994|
|         786|   -7.906263|  -10.462197|    0.824000|    0.011994|
|         787|   -7.903873|  -10.463482|    0.824000|    0.011994|
|         788|   -7.901537|  -10.464258|    0.824000|    0.011994|
|         789|   -7.899282|  -10.464572|    0.824000|    0.011994|
|         790|   -7.897132|  -10.464480|    0.824000|    0.011994|
|         791|   -7.895110|  -10.464042|    0.824000|    0.011994|
|         792|   -7.893234|  -10.463319|    0.824000|    0.011994|
|         793|   -7.891522|  -10.462375|    0.824000|    0.011994|
|         794|   -7.889986|  -10.461273|    0.824000|    0.011994|
|         795|   -7.888638|  -10.460072|    0.824000|    0.011994|
|         796|   -7.887487|  -10.458828|    0.824000|    0.011994|
|         797|   -7.886537|  -10.457594|    0.824000|    0.011994|
|         798|   -7.885790|  -10.456416|    0.824000|    0.011994|
|         799|   -7.885247|  -10.455335|    0.824000|    0.011994|
|         800|   -7.884903|  -10.454388|    0.824000|    0.011994|
|         801|   -7.884754|  -10.453606|    0.824000|    0.011994|
|         802|   -7.884790|  -10.453014|    0.824000|    0.011994|
|         803|   -7.884999|  -10.452632|    0.824000|    0.011994|
|         804|   -7.885369|  -10.452477|    0.824000|    0.011994|
|         805|   -7.885882|  -10.452560|    0.824000|    0.011994|
|         806|   -7.886521|  -10.452887|    0.824000|    0.011994|
|         807|   -7.887264|  -10.453464|    0.824000|    0.011994|
|         808|   -7.888088|  -10.454289|    0.824000|    0.011994|
|         809|   -7.888969|  -10.455360|    0.824000|    0.011994|
|         810|   -7.889880|  -10.456671|    0.824000|    0.011994|
|         811|   -7.890796|  -10.458214|    0.824000|    0.011994|
|         812|   -7.891687|  -10.459978|    0.824000|    0.011994|
|         813|   -7.892526|  -10.461950|    0.824000|    0.011994|
|         814|   -7.893285|  -10.464117|    0.824000|    0.011994|
|         815|   -7.893936|  -10.466460|    0.824000|    0.011994|
|         816|   -7.894454|  -10.468963|    0.824000|    0.011994|
|         817|   -7.894815|  -10.471604|    0.824000|    0.011994|
|         818|   -7.894996|  -10.474364|    0.824000|    0.011994|
|         819|   -7.894980|  -10.477219|    0.824000|    0.011994|
|         820|   -7.894750|  -10.480146|    0.824000|    0.011994|
|         821|   -7.894296|  -10.483120|    0.824000|    0.011994|
|         822|   -7.893611|  -10.486114|    0.824000|    0.011994|
|         823|   -7.892692|  -10.489102|    0.824000|    0.011994|
|         824|   -7.891540|  -10.492055|    0.824000|    0.011994|
|         825|   -7.890162|  -10.494946|    0.824000|    0.011994|
|         826|   -7.888569|  -10.497745|    0.824000|    0.011994|
|         827|   -7.886777|  -10.500422|    0.824000|    0.011994|
|         828|   -7.884802|  -10.502951|    0.824000|    0.011994|
|         829|   -7.882669|  -10.505302|    0.824000|    0.011994|
|         830|   -7.880402|  -10.507447|    0.824000|    0.011994|
|         831|   -7.878029|  -10.509363|    0.824000|    0.011994|
|         832|   -7.875577|  -10.511024|    0.824000|    0.011994|
|         833|   -7.873080|  -10.512411|    0.824000|    0.011994|
|         834|   -7.870566|  -10.513505|    0.824000|    0.011994|
|         835|   -7.868067|  -10.514292|    0.824000|    0.011994|
|         836|   -7.865615|  -10.514762|    0.824000|    0.011994|
|         837|   -7.863240|  -10.514910|    0.824000|    0.011994|
|         838|   -7.860971|  -10.514735|    0.824000|    0.011994|
|         839|   -7.858835|  -10.514241|    0.824000|    0.011994|
|         840|   -7.856860|  -10.513438|    0.824000|    0.011994|
|         841|   -7.855071|  -10.512340|    0.824000|    0.011994|
|         842|   -7.853488|  -10.510966|    0.824000|    0.011994|
|         843|   -7.852135|  -10.509340|    0.824000|    0.011994|
|         844|   -7.851028|  -10.507488|    0.824000|    0.011994|
|         845|   -7.850184|  -10.505443|    0.824000|    0.011994|
|         846|   -7.849618|  -10.503237|    0.824000|    0.011994|
|         847|   -7.849340|  -10.500907|    0.824000|    0.011994|
|         848|   -7.849361|  -10.498490|    0.824000|    0.011994|
|         849|   -7.849688|  -10.496024|    0.824000|    0.011994|
|         850|   -7.850325|  -10.493548|    0.824000|    0.011994|
|         851|   -7.851274|  -10.491101|    0.824000|    0.011994|
|         852|   -7.852536|  -10.488721|    0.824000|    0.011994|
|         853|   -7.854108|  -10.486445|    0.824000|    0.011994|
|         854|   -7.855984|  -10.484308|    0.824000|    0.011994|
|         855|   -7.858157|  -10.482344|    0.824000|    0.011994|
|         856|   -7.860615|  -10.480584|    0.824000|    0.011994|
|         857|   -7.863346|  -10.479058|    0.824000|    0.011994|
|         858|   -7.866333|  -10.477794|    0.824000|    0.011994|
|         859|   -7.869557|  -10.476817|    0.824000|    0.011994|
|         860|   -7.872994|  -10.476149|    0.824000|    0.011994|
|         861|   -7.876621|  -10.475811|    0.824000|    0.011994|
|         862|   -7.880409|  -10.475820|    0.824000|    0.011994|
|         863|   -7.884326|  -10.476193|    0.824000|    0.011994|
|         864|   -7.888339|  -10.476941|    0.824000|    0.011994|
|         865|   -7.892410|  -10.478076|    0.824000|    0.011994|
|         866|   -7.896500|  -10.479605|    0.824000|    0.011994|
|         867|   -7.900568|  -10.481534|    0.824000|    0.011994|
|         868|   -7.904571|  -10.483866|    0.824000|    0.011994|
|         869|   -7.908466|  -10.486602|    0.824000|    0.011994|
|         870|   -7.912210|  -10.489739|    0.824000|    0.011994|
|         871|   -7.915758|  -10.493271|    0.824000|    0.011994|
|         872|   -7.919069|  -10.497192|    0.824000|    0.011994|
|         873|   -7.922105|  -10.501489|    0.824000|    0.011994|
|         874|   -7.924830|  -10.506148|    0.824000|    0.011994|
|         875|   -7.927214|  -10.511151|    0.824000|    0.011994|
|         876|   -7.929230|  -10.516476|    0.824000|    0.011994|
|         877|   -7.930859|  -10.522097|    0.824000|    0.011994|
|         878|   -7.932090|  -10.527985|    0.824000|    0.011994|
|         879|   -7.932917|  -10.534104|    0.824000|    0.011994|
|         880|   -7.933341|  -10.540416|    0.824000|    0.011994|
|         881|   -7.933373|  -10.546878|    0.824000|    0.011994|
|         882|   -7.933029|  -10.553442|    0.824000|    0.011994|
|         883|   -7.932331|  -10.560054|    0.824000|    0.011994|
|         884|   -7.931309|  -10.566660|    0.824000|    0.011994|
|         885|   -7.929994|  -10.573198|    0.824000|    0.011994|
|         886|   -7.928425|  -10.579606|    0.824000|    0.011994|
|         887|   -7.926641|  -10.585820|    0.824000|    0.011994|
|         888|   -7.924684|  -10.591774|    0.824000|    0.011994|
|         889|   -7.922597|  -10.597405|    0.824000|    0.011994|
|         890|   -7.920422|  -10.602651|    0.824000|    0.011994|
|         891|   -7.918203|  -10.607456|    0.824000|    0.011994|
|         892|   -7.915981|  -10.611770|    0.824000|    0.011994|
|         893|   -7.913795|  -10.615552|    0.824000|    0.011994|
|         894|   -7.911682|  -10.618770|    0.824000|    0.011994|
|         895|   -7.909679|  -10.621403|    0.824000|    0.011994|
|         896|   -7.907818|  -10.623445|    0.824000|    0.011994|
|         897|   -7.906129|  -10.624899|    0.824000|    0.011994|
|         898|   -7.904640|  -10.625783|    0.824000|    0.011994|
|         899|   -7.903375|  -10.626125|    0.824000|    0.011994|
|         900|   -7.902356|  -10.625965|    0.824000|    0.011994|
|         901|   -7.901604|  -10.625352|    0.824000|    0.011994|
|         902|   -7.901136|  -10.624340|    0.824000|    0.011994|
|         903|   -7.900967|  -10.622992|    0.824000|    0.011994|
|         904|   -7.901108|  -10.621370|    0.824000|    0.011994|
|         905|   -7.901571|  -10.619543|    0.824000|    0.011994|
|         906|   -7.902365|  -10.617574|    0.824000|    0.011994|
|         907|   -7.903494|  -10.615530|    0.824000|    0.011994|
|         908|   -7.904963|  -10.613473|    0.824000|    0.011994|
|         909|   -7.906775|  -10.611461|    0.824000|    0.011994|
|         910|   -7.908930|  -10.609549|    0.824000|    0.011994|
|         911|   -7.911426|  -10.607789|    0.824000|    0.011994|
|         912|   -7.914259|  -10.606227|    0.824000|    0.011994|
|         913|   -7.917423|  -10.604904|    0.824000|    0.011994|
|         914|   -7.920911|  -10.603858|    0.824000|    0.011994|
|         915|   -7.924711|  -10.603121|    0.824000|    0.011994|
|         916|   -7.928810|  -10.602722|    0.824000|    0.011994|
|         917|   -7.933194|  -10.602685|    0.824000|    0.011994|
|         918|   -7.937844|  -10.603030|    0.824000|    0.011994|
|         919|   -7.942740|  -10.603775|    0.824000|    0.011994|
|         920|   -7.947856|  -10.604931|    0.824000|    0.011994|
|         921|   -7.953167|  -10.606510|    0.824000|    0.011994|
|         922|   -7.958641|  -10.608516|    0.824000|    0.011994|
|         923|   -7.964246|  -10.610954|    0.824000|    0.011994|
|         924|   -7.969945|  -10.613824|    0.824000|    0.011994|
|         925|   -7.975698|  -10.617122|    0.824000|    0.011994|
|         926|   -7.981462|  -10.620842|    0.824000|    0.011994|
|         927|   -7.987192|  -10.624974|    0.824000|    0.011994|
|         928|   -7.992841|  -10.629504|    0.824000|    0.011994|
|         929|   -7.998358|  -10.634415|    0.824000|    0.011994|
|         930|   -8.003695|  -10.639686|    0.824000|    0.011994|
|         931|   -8.008801|  -10.645293|    0.824000|    0.011994|
|         932|   -8.013628|  -10.651204|    0.824000|    0.011994|
|         933|   -8.018129|  -10.657385|    0.824000|    0.011994|
|         934|   -8.022262|  -10.663798|    0.824000|    0.011994|
|         935|   -8.025989|  -10.670396|    0.824000|    0.011994|
|         936|   -8.029278|  -10.677131|    0.824000|    0.011994|
|         937|   -8.032103|  -10.683945|    0.824000|    0.011994|
|         938|   -8.034450|  -10.690780|    0.824000|    0.011994|
|         939|   -8.036308|  -10.697569|    0.824000|    0.011994|
|         940|   -8.037680|  -10.704243|    0.824000|    0.011994|
|         941|   -8.038575|  -10.710728|    0.824000|    0.011994|
|         942|   -8.039012|  -10.716950|    0.824000|    0.011994|
|         943|   -8.039017|  -10.722834|    0.824000|    0.011994|
|         944|   -8.038625|  -10.728305|    0.824000|    0.011994|
|         945|   -8.037874|  -10.733294|    0.824000|    0.011994|
|         946|   -8.036810|  -10.737736|    0.824000|    0.011994|
|         947|   -8.035481|  -10.741575|    0.824000|    0.011994|
|         948|   -8.033938|  -10.744767|    0.824000|    0.011994|
|         949|   -8.032231|  -10.747279|    0.824000|    0.011994|
|         950|   -8.030413|  -10.749093|    0.824000|    0.011994|
|         951|   -8.028535|  -10.750204|    0.824000|    0.011994|
|         952|   -8.026645|  -10.750626|    0.824000|    0.011994|
|         953|   -8.024790|  -10.750384|    0.824000|    0.011994|
|         954|   -8.023015|  -10.749518|    0.824000|    0.011994|
|         955|   -8.021361|  -10.748079|    0.824000|    0.011994|
[...]
|        4653|   -6.009296|   -7.912629|    0.824239|    0.011999|
|        4654|   -6.017360|   -7.916469|    0.824239|    0.011999|
|        4655|   -6.025284|   -7.920285|    0.824239|    0.011999|
|        4656|   -6.032996|   -7.924097|    0.824239|    0.011999|
|        4657|   -6.040432|   -7.927924|    0.824239|    0.011999|
|        4658|   -6.047530|   -7.931781|    0.824239|    0.011999|
|        4659|   -6.054237|   -7.935682|    0.824240|    0.011999|
|        4660|   -6.060509|   -7.939638|    0.824240|    0.011999|
|        4661|   -6.066315|   -7.943656|    0.824240|    0.011998|
|        4662|   -6.071632|   -7.947741|    0.824240|    0.011998|
|        4663|   -6.076454|   -7.951897|    0.824240|    0.011998|
|        4664|   -6.080786|   -7.956123|    0.824240|    0.011998|
|        4665|   -6.084646|   -7.960418|    0.824240|    0.011998|
|        4666|   -6.088062|   -7.964779|    0.824240|    0.011998|
|        4667|   -6.091075|   -7.969207|    0.824240|    0.011998|
|        4668|   -6.093732|   -7.973697|    0.824240|    0.011998|
|        4669|   -6.096086|   -7.978243|    0.824241|    0.011998|
|        4670|   -6.098194|   -7.982839|    0.824241|    0.011998|
|        4671|   -6.100118|   -7.987480|    0.824241|    0.011998|
|        4672|   -6.101918|   -7.992162|    0.824241|    0.011998|
|        4673|   -6.103655|   -7.996881|    0.824241|    0.011998|
|        4674|   -6.105384|   -8.001635|    0.824241|    0.011998|
|        4675|   -6.107157|   -8.006424|    0.824241|    0.011998|
|        4676|   -6.109024|   -8.011248|    0.824241|    0.011998|
|        4677|   -6.111026|   -8.016108|    0.824241|    0.011998|
|        4678|   -6.113199|   -8.021009|    0.824242|    0.011998|
|        4679|   -6.115572|   -8.025954|    0.824242|    0.011998|
|        4680|   -6.118169|   -8.030947|    0.824242|    0.011998|
|        4681|   -6.121005|   -8.035993|    0.824242|    0.011998|
|        4682|   -6.124090|   -8.041096|    0.824242|    0.011998|
|        4683|   -6.127427|   -8.046260|    0.824242|    0.011998|
|        4684|   -6.131010|   -8.051490|    0.824243|    0.011999|
|        4685|   -6.134830|   -8.056786|    0.824243|    0.011999|
|        4686|   -6.138869|   -8.062150|    0.824243|    0.011999|
|        4687|   -6.143105|   -8.067582|    0.824243|    0.011999|
|        4688|   -6.147509|   -8.073081|    0.824243|    0.011999|
|        4689|   -6.152048|   -8.078647|    0.824243|    0.011999|
|        4690|   -6.156682|   -8.084277|    0.824244|    0.011999|
|        4691|   -6.161372|   -8.089969|    0.824244|    0.011999|
|        4692|   -6.166072|   -8.095718|    0.824244|    0.011999|
|        4693|   -6.170736|   -8.101519|    0.824244|    0.011999|
|        4694|   -6.175321|   -8.107368|    0.824244|    0.011999|
|        4695|   -6.179779|   -8.113259|    0.824244|    0.011999|
|        4696|   -6.184071|   -8.119188|    0.824245|    0.011999|
|        4697|   -6.188158|   -8.125148|    0.824245|    0.012000|
|        4698|   -6.192008|   -8.131136|    0.824245|    0.012000|
|        4699|   -6.195595|   -8.137148|    0.824245|    0.012000|
|        4700|   -6.198903|   -8.143180|    0.824245|    0.012000|
|        4701|   -6.201922|   -8.149230|    0.824245|    0.012000|
|        4702|   -6.204652|   -8.155296|    0.824245|    0.012000|
|        4703|   -6.207102|   -8.161379|    0.824246|    0.012000|
|        4704|   -6.209289|   -8.167476|    0.824246|    0.012000|
|        4705|   -6.211238|   -8.173590|    0.824246|    0.012000|
|        4706|   -6.212980|   -8.179721|    0.824246|    0.012000|
|        4707|   -6.214554|   -8.185872|    0.824246|    0.012000|
|        4708|   -6.215999|   -8.192045|    0.824246|    0.012000|
|        4709|   -6.217362|   -8.198243|    0.824246|    0.012000|
|        4710|   -6.218687|   -8.204469|    0.824246|    0.012001|
|        4711|   -6.220021|   -8.210727|    0.824247|    0.012001|
|        4712|   -6.221408|   -8.217020|    0.824247|    0.012001|
|        4713|   -6.222893|   -8.223351|    0.824247|    0.012001|
|        4714|   -6.224519|   -8.229720|    0.824247|    0.012001|
|        4715|   -6.226321|   -8.236129|    0.824247|    0.012001|
|        4716|   -6.228332|   -8.242578|    0.824247|    0.012001|
|        4717|   -6.230581|   -8.249067|    0.824247|    0.012001|
|        4718|   -6.233094|   -8.255592|    0.824247|    0.012001|
|        4719|   -6.235891|   -8.262153|    0.824247|    0.012001|
|        4720|   -6.238986|   -8.268746|    0.824247|    0.012001|
|        4721|   -6.242390|   -8.275367|    0.824247|    0.012001|
|        4722|   -6.246109|   -8.282011|    0.824247|    0.012001|
|        4723|   -6.250142|   -8.288671|    0.824247|    0.012001|
|        4724|   -6.254485|   -8.295341|    0.824247|    0.012001|
|        4725|   -6.259128|   -8.302014|    0.824247|    0.012001|
|        4726|   -6.264056|   -8.308683|    0.824248|    0.012001|
|        4727|   -6.269250|   -8.315342|    0.824248|    0.012001|
|        4728|   -6.274684|   -8.321983|    0.824248|    0.012001|
|        4729|   -6.280330|   -8.328602|    0.824248|    0.012001|
|        4730|   -6.286153|   -8.335193|    0.824248|    0.012001|
|        4731|   -6.292116|   -8.341751|    0.824248|    0.012001|
|        4732|   -6.298177|   -8.348272|    0.824248|    0.012001|
|        4733|   -6.304291|   -8.354754|    0.824248|    0.012001|
|        4734|   -6.310410|   -8.361194|    0.824248|    0.012001|
|        4735|   -6.316485|   -8.367591|    0.824248|    0.012001|
|        4736|   -6.322466|   -8.373945|    0.824248|    0.012001|
|        4737|   -6.328304|   -8.380258|    0.824248|    0.012001|
|        4738|   -6.333951|   -8.386532|    0.824248|    0.012000|
|        4739|   -6.339362|   -8.392771|    0.824248|    0.012000|
|        4740|   -6.344496|   -8.398980|    0.824248|    0.012000|
|        4741|   -6.349316|   -8.405166|    0.824248|    0.012000|
|        4742|   -6.353792|   -8.411334|    0.824248|    0.012000|
|        4743|   -6.357902|   -8.417494|    0.824248|    0.012000|
|        4744|   -6.361629|   -8.423652|    0.824248|    0.012000|
|        4745|   -6.364966|   -8.429817|    0.824248|    0.012000|
|        4746|   -6.367912|   -8.435997|    0.824248|    0.012000|
|        4747|   -6.370472|   -8.442198|    0.824248|    0.012000|
|        4748|   -6.372659|   -8.448426|    0.824248|    0.012000|
|        4749|   -6.374491|   -8.454686|    0.824248|    0.012000|
|        4750|   -6.375991|   -8.460981|    0.824248|    0.012000|
|        4751|   -6.377182|   -8.467310|    0.824248|    0.011999|
|        4752|   -6.378092|   -8.473673|    0.824248|    0.011999|
|        4753|   -6.378750|   -8.480066|    0.824249|    0.011999|
|        4754|   -6.379182|   -8.486481|    0.824249|    0.011999|
|        4755|   -6.379416|   -8.492909|    0.824249|    0.011999|
|        4756|   -6.379477|   -8.499336|    0.824249|    0.011999|
|        4757|   -6.379388|   -8.505749|    0.824249|    0.011999|
|        4758|   -6.379170|   -8.512129|    0.824249|    0.011999|
|        4759|   -6.378841|   -8.518456|    0.824249|    0.011999|
|        4760|   -6.378416|   -8.524709|    0.824249|    0.011999|
|        4761|   -6.377908|   -8.530866|    0.824250|    0.011998|
|        4762|   -6.377328|   -8.536903|    0.824250|    0.011998|
|        4763|   -6.376683|   -8.542798|    0.824250|    0.011998|
|        4764|   -6.375980|   -8.548528|    0.824250|    0.011998|
|        4765|   -6.375225|   -8.554073|    0.824250|    0.011998|
|        4766|   -6.374422|   -8.559414|    0.824251|    0.011998|
|        4767|   -6.373573|   -8.564536|    0.824251|    0.011998|
|        4768|   -6.372680|   -8.569425|    0.824251|    0.011998|
|        4769|   -6.371747|   -8.574073|    0.824251|    0.011998|
|        4770|   -6.370775|   -8.578474|    0.824251|    0.011998|
|        4771|   -6.369766|   -8.582625|    0.824251|    0.011998|
|        4772|   -6.368724|   -8.586529|    0.824252|    0.011997|
|        4773|   -6.367651|   -8.590189|    0.824252|    0.011997|
|        4774|   -6.366551|   -8.593613|    0.824252|    0.011997|
|        4775|   -6.365427|   -8.596809|    0.824252|    0.011997|
|        4776|   -6.364285|   -8.599787|    0.824252|    0.011997|
|        4777|   -6.363129|   -8.602560|    0.824252|    0.011997|
|        4778|   -6.361967|   -8.605139|    0.824253|    0.011997|
|        4779|   -6.360803|   -8.607534|    0.824253|    0.011997|
|        4780|   -6.359647|   -8.609757|    0.824253|    0.011997|
|        4781|   -6.358506|   -8.611817|    0.824253|    0.011997|
|        4782|   -6.357389|   -8.613722|    0.824253|    0.011997|
|        4783|   -6.356306|   -8.615480|    0.824253|    0.011997|
|        4784|   -6.355267|   -8.617095|    0.824253|    0.011997|
|        4785|   -6.354283|   -8.618573|    0.824254|    0.011997|
|        4786|   -6.353367|   -8.619917|    0.824254|    0.011997|
|        4787|   -6.352533|   -8.621131|    0.824254|    0.011997|
|        4788|   -6.351793|   -8.622218|    0.824254|    0.011997|
|        4789|   -6.351161|   -8.623182|    0.824254|    0.011997|
|        4790|   -6.350652|   -8.624027|    0.824254|    0.011997|
|        4791|   -6.350281|   -8.624758|    0.824254|    0.011997|
|        4792|   -6.350063|   -8.625381|    0.824254|    0.011997|
|        4793|   -6.350014|   -8.625904|    0.824254|    0.011997|
|        4794|   -6.350149|   -8.626337|    0.824255|    0.011997|
|        4795|   -6.350483|   -8.626692|    0.824255|    0.011997|
|        4796|   -6.351031|   -8.626980|    0.824255|    0.011997|
|        4797|   -6.351807|   -8.627217|    0.824255|    0.011997|
|        4798|   -6.352824|   -8.627418|    0.824255|    0.011997|
|        4799|   -6.354094|   -8.627600|    0.824255|    0.011997|
|        4800|   -6.355628|   -8.627778|    0.824255|    0.011997|
|        4801|   -6.357436|   -8.627972|    0.824255|    0.011997|
|        4802|   -6.359523|   -8.628197|    0.824255|    0.011997|
|        4803|   -6.361895|   -8.628469|    0.824255|    0.011997|
|        4804|   -6.364555|   -8.628806|    0.824255|    0.011997|
|        4805|   -6.367503|   -8.629220|    0.824255|    0.011997|
|        4806|   -6.370736|   -8.629727|    0.824255|    0.011997|
|        4807|   -6.374250|   -8.630336|    0.824255|    0.011997|
|        4808|   -6.378036|   -8.631059|    0.824256|    0.011997|
|        4809|   -6.382081|   -8.631904|    0.824256|    0.011997|
|        4810|   -6.386370|   -8.632879|    0.824256|    0.011997|
|        4811|   -6.390886|   -8.633989|    0.824256|    0.011997|
|        4812|   -6.395604|   -8.635237|    0.824256|    0.011997|
|        4813|   -6.400501|   -8.636625|    0.824256|    0.011998|
|        4814|   -6.405545|   -8.638152|    0.824256|    0.011998|
|        4815|   -6.410704|   -8.639818|    0.824256|    0.011998|
|        4816|   -6.415942|   -8.641620|    0.824256|    0.011998|
|        4817|   -6.421219|   -8.643555|    0.824256|    0.011998|
|        4818|   -6.426494|   -8.645619|    0.824256|    0.011998|
|        4819|   -6.431723|   -8.647806|    0.824256|    0.011998|
|        4820|   -6.436862|   -8.650114|    0.824256|    0.011998|
|        4821|   -6.441863|   -8.652535|    0.824256|    0.011998|
|        4822|   -6.446682|   -8.655065|    0.824255|    0.011998|
|        4823|   -6.451274|   -8.657699|    0.824255|    0.011998|
|        4824|   -6.455599|   -8.660431|    0.824255|    0.011998|
|        4825|   -6.459616|   -8.663256|    0.824255|    0.011999|
|        4826|   -6.463292|   -8.666168|    0.824255|    0.011999|
|        4827|   -6.466598|   -8.669165|    0.824255|    0.011999|
|        4828|   -6.469512|   -8.672239|    0.824255|    0.011999|
|        4829|   -6.472016|   -8.675388|    0.824255|    0.011999|
|        4830|   -6.474105|   -8.678608|    0.824255|    0.011999|
|        4831|   -6.475775|   -8.681895|    0.824255|    0.011999|
|        4832|   -6.477031|   -8.685245|    0.824255|    0.011999|
|        4833|   -6.477887|   -8.688656|    0.824255|    0.011999|
|        4834|   -6.478362|   -8.692123|    0.824255|    0.011999|
|        4835|   -6.478479|   -8.695641|    0.824255|    0.011999|
|        4836|   -6.478268|   -8.699206|    0.824254|    0.011999|
|        4837|   -6.477763|   -8.702813|    0.824254|    0.011999|
|        4838|   -6.476999|   -8.706454|    0.824254|    0.011999|
|        4839|   -6.476016|   -8.710125|    0.824254|    0.011999|
|        4840|   -6.474850|   -8.713820|    0.824254|    0.012000|
|        4841|   -6.473543|   -8.717533|    0.824254|    0.012000|
|        4842|   -6.472132|   -8.721260|    0.824254|    0.012000|
|        4843|   -6.470654|   -8.724995|    0.824254|    0.012000|
|        4844|   -6.469146|   -8.728734|    0.824254|    0.012000|
|        4845|   -6.467640|   -8.732470|    0.824253|    0.012000|
|        4846|   -6.466167|   -8.736200|    0.824253|    0.012000|
|        4847|   -6.464755|   -8.739918|    0.824253|    0.012000|
|        4848|   -6.463431|   -8.743620|    0.824253|    0.012000|
|        4849|   -6.462217|   -8.747302|    0.824253|    0.012000|
|        4850|   -6.461134|   -8.750961|    0.824253|    0.012000|
|        4851|   -6.460198|   -8.754594|    0.824253|    0.012000|
|        4852|   -6.459426|   -8.758200|    0.824253|    0.012000|
|        4853|   -6.458830|   -8.761778|    0.824253|    0.012000|
|        4854|   -6.458420|   -8.765329|    0.824253|    0.012000|
|        4855|   -6.458205|   -8.768855|    0.824252|    0.012000|
|        4856|   -6.458191|   -8.772357|    0.824252|    0.012000|
|        4857|   -6.458383|   -8.775839|    0.824252|    0.012000|
|        4858|   -6.458785|   -8.779304|    0.824252|    0.012000|
|        4859|   -6.459397|   -8.782756|    0.824252|    0.012000|
|        4860|   -6.460221|   -8.786199|    0.824252|    0.012000|
|        4861|   -6.461255|   -8.789637|    0.824252|    0.012000|
|        4862|   -6.462500|   -8.793074|    0.824252|    0.011999|
|        4863|   -6.463953|   -8.796514|    0.824252|    0.011985|
+-----------------------------------------------------------------------+
|Fixed CL Mode (Finite Difference)       |Value                         |
+-----------------------------------------------------------------------+
|Delta CL / Delta AoA                    |0.251694                      |
|Delta CD / Delta CL                     |0.0200514                     |
|Delta CMz / Delta CL                    |0.0166403                     |
+-----------------------------------------------------------------------+
Writing Flow Meta-Data file: flow.meta

--------------------------- Finalizing Solver ---------------------------
Deleted CNumerics container.
Deleted CIntegration container.
Deleted CSolver container.
Deleted CIteration container.
Deleted CInterface container.
Deleted CGeometry container.
Deleted CFreeFormDefBox class.
Deleted CSurfaceMovement class.
Deleted CVolumetricMovement class.
Deleted CConfig container.
Deleted nInst container.
Deleted COutput class.
-------------------------------------------------------------------------

------------------------- Exit Success (SU2_CFD) ------------------------


-------------------------------------------------------------------------
|    ___ _   _ ___                                                      |
|   / __| | | |_  )   Release 8.0.0 "Harrier"                           |
|   \__ \ |_| |/ /                                                      |
|   |___/\___//___|   Suite (Solution Exporting Code)                   |
|                                                                       |
-------------------------------------------------------------------------
| SU2 Project Website: https://su2code.github.io                        |
|                                                                       |
| The SU2 Project is maintained by the SU2 Foundation                   |
| (http://su2foundation.org)                                            |
-------------------------------------------------------------------------
| Copyright 2012-2023, SU2 Contributors                                 |
|                                                                       |
| SU2 is free software; you can redistribute it and/or                  |
| modify it under the terms of the GNU Lesser General Public            |
| License as published by the Free Software Foundation; either          |
| version 2.1 of the License, or (at your option) any later version.    |
|                                                                       |
| SU2 is distributed in the hope that it will be useful,                |
| but WITHOUT ANY WARRANTY; without even the implied warranty of        |
| MERCHANTABILITY or FITNESS FOR A PARTICULAR PURPOSE. See the GNU      |
| Lesser General Public License for more details.                       |
|                                                                       |
| You should have received a copy of the GNU Lesser General Public      |
| License along with SU2. If not, see <http://www.gnu.org/licenses/>.   |
-------------------------------------------------------------------------

----------------- Physical Case Definition ( Zone 0 ) -------------------
Input mesh file name: mesh_RAE2822_turb_deform.su2

-------------------- Output Information ( Zone 0 ) ----------------------
The tabular file format is CSV (.csv).
Flow variables file name: flow.

------------- Config File Boundary Information ( Zone 0 ) ---------------
+-----------------------------------------------------------------------+
|                        Marker Type|                        Marker Name|
+-----------------------------------------------------------------------+
|                          Far-field|                           FARFIELD|
+-----------------------------------------------------------------------+
|                     Heat flux wall|                            AIRFOIL|
+-----------------------------------------------------------------------+
Two dimensional problem.
13937 grid points before partitioning.
22842 volume elements before partitioning.
2 surface markers.
192 boundary elements in index 0 (Marker = AIRFOIL).
40 boundary elements in index 1 (Marker = FARFIELD).
Executing the partitioning functions.
Building the graph adjacency structure.
Calling ParMETIS... graph partitioning complete (831 edge cuts).
Distributing ParMETIS coloring.
Rebalancing vertices.
Rebalancing volume element connectivity.
Rebalancing markers and surface elements.
14875 vertices including ghost points. 
23674 interior elements including halo cells. 
18780 triangles.
4894 quadrilaterals.
Establishing MPI communication patterns.
Identify vertices.
Storing a mapping from global to local point index.

------------------------- Solution Postprocessing -----------------------
Reading and storing the solution from restart_flow.
Volume output fields: COORDINATES, SOLUTION
  Info: Ignoring the following screen output fields:
  RMS_DENSITY, RMS_NU_TILDE, LIFT, DRAG
Screen output fields: INNER_ITER
  Info: Ignoring the following history output groups:
  RMS_RES, AERO_COEFF
History output group(s): ITER
Warning: No (valid) fields chosen for convergence monitoring. Convergence monitoring inactive.
Warning: No (valid) fields chosen for time convergence monitoring. Time convergence monitoring inactive.
|Paraview                           |flow.vtu                           |
|Paraview surface                   |surface_flow.vtu                   |
|CSV file                           |surface_flow.csv                   |

------------------------- Finalize Solver -------------------------
Deleted CGeometry container.
Deleted CSolver class.
Deleted CConfig container.
Deleted COutput class.

Completed in 0.015803 seconds on 6 cores.

------------------------- Exit Success (SU2_SOL) ------------------------

