
-------------------------------------------------------------------------
|    ___ _   _ ___                                                      |
|   / __| | | |_  )   Release 8.0.0 "Harrier"                           |
|   \__ \ |_| |/ /                                                      |
|   |___/\___//___|   Suite (Computational Fluid Dynamics Code)         |
|                                                                       |
-------------------------------------------------------------------------
| SU2 Project Website: https://su2code.github.io                        |
|                                                                       |
| The SU2 Project is maintained by the SU2 Foundation                   |
| (http://su2foundation.org)                                            |
-------------------------------------------------------------------------
| Copyright 2012-2023, SU2 Contributors                                 |
|                                                                       |
| SU2 is free software; you can redistribute it and/or                  |
| modify it under the terms of the GNU Lesser General Public            |
| License as published by the Free Software Foundation; either          |
| version 2.1 of the License, or (at your option) any later version.    |
|                                                                       |
| SU2 is distributed in the hope that it will be useful,                |
| but WITHOUT ANY WARRANTY; without even the implied warranty of        |
| MERCHANTABILITY or FITNESS FOR A PARTICULAR PURPOSE. See the GNU      |
| Lesser General Public License for more details.                       |
|                                                                       |
| You should have received a copy of the GNU Lesser General Public      |
| License along with SU2. If not, see <http://www.gnu.org/licenses/>.   |
-------------------------------------------------------------------------

Parsing config file for zone 0

----------------- Physical Case Definition ( Zone 0 ) -------------------
Compressible RANS equations.
Turbulence model: Spalart-Allmaras-noft2
Hybrid RANS/LES: No Hybrid RANS/LES
Mach number: 0.734.
Angle of attack (AoA): 2.31 deg, and angle of sideslip (AoS): 0 deg.
Reynolds number: 6.5e+06. Reference length 1.
Fixed CL mode, target value: 0.824.
Reading and writing binary SU2 native restart files.
Read flow solution from: solution_flow.dat.
Dimensional simulation.
The reference area is 1 m^2.
The semi-span will be computed using the max y(3D) value.
The reference length is 1 m.
Reference origin for moment evaluation is (0.25, 0, 0).
Surface(s) where the force coefficients are evaluated: AIRFOIL.

Surface(s) plotted in the output file: AIRFOIL.
Surface(s) affected by the design variables: AIRFOIL.
Input mesh file name: mesh_RAE2822_turb_deform.su2

--------------- Space Numerical Integration ( Zone 0 ) ------------------
Jameson-Schmidt-Turkel scheme (2nd order in space) for the flow inviscid terms.
JST viscous coefficients (2nd & 4th): 0.5, 0.02.
The method includes a grid stretching correction (p = 0.3).
Scalar upwind solver for the turbulence model.
First order integration in space.
Average of gradients with correction (viscous flow terms).
Average of gradients with correction (viscous turbulence terms).
Gradient for viscous and source terms: inverse-distance weighted Least-Squares.

--------------- Time Numerical Integration  ( Zone 0 ) ------------------
Local time stepping (steady state simulation).
Euler implicit method for the flow equations.
FGMRES is used for solving the linear system.
Using a ILU(0) preconditioning.
Convergence criteria of the linear solver: 1e-06.
Max number of linear iterations: 10.
No CFL adaptation.
Courant-Friedrichs-Lewy number:       10
Euler implicit time integration for the turbulence model.

------------------ Convergence Criteria  ( Zone 0 ) ---------------------
Maximum number of solver subiterations: 5500.
Begin convergence monitoring at iteration 10.
Residual minimum value: 1e-12.
Cauchy series min. value: 1e-06.
Number of Cauchy elements: 100.
Begin windowed time average at iteration 0.

-------------------- Output Information ( Zone 0 ) ----------------------
File writing frequency: 
+------------------------------------+
|                     File| Frequency|
+------------------------------------+
|                  RESTART|     10000|
|                 PARAVIEW|     10000|
|         SURFACE_PARAVIEW|     10000|
|              SURFACE_CSV|     10000|
+------------------------------------+
Writing the convergence history file every 1 inner iterations.
Writing the screen convergence history every 1 inner iterations.
The tabular file format is CSV (.csv).
Convergence history file name: history_direct.
Forces breakdown file name: forces_breakdown.dat.
Surface file name: surface_flow.
Volume file name: flow.
Restart file name: restart_flow.dat.

------------- Config File Boundary Information ( Zone 0 ) ---------------
+-----------------------------------------------------------------------+
|                        Marker Type|                        Marker Name|
+-----------------------------------------------------------------------+
|                          Far-field|                           FARFIELD|
+-----------------------------------------------------------------------+
|                     Heat flux wall|                            AIRFOIL|
+-----------------------------------------------------------------------+

-------------------- Output Preprocessing ( Zone 0 ) --------------------

WARNING: SURFACE_PRESSURE_DROP can only be computed for at least 2 surfaces (outlet, inlet, ...)

Screen output fields: INNER_ITER, RMS_DENSITY, RMS_NU_TILDE, LIFT, DRAG
History output group(s): ITER, RMS_RES, AERO_COEFF
Convergence field(s): RMS_DENSITY
Warning: No (valid) fields chosen for time convergence monitoring. Time convergence monitoring inactive.
Volume output fields: COORDINATES, SOLUTION, PRIMITIVE

------------------- Geometry Preprocessing ( Zone 0 ) -------------------
Two dimensional problem.
13937 grid points before partitioning.
22842 volume elements before partitioning.
2 surface markers.
192 boundary elements in index 0 (Marker = AIRFOIL).
40 boundary elements in index 1 (Marker = FARFIELD).
Executing the partitioning functions.
Building the graph adjacency structure.
Calling ParMETIS... graph partitioning complete (831 edge cuts).
Distributing ParMETIS coloring.
Rebalancing vertices.
Rebalancing volume element connectivity.
Rebalancing markers and surface elements.
14875 vertices including ghost points. 
23674 interior elements including halo cells. 
18780 triangles.
4894 quadrilaterals.
Establishing MPI communication patterns.
Setting point connectivity.
Renumbering points (Reverse Cuthill McKee Ordering).
Recomputing point connectivity.
Setting element connectivity.
Checking the numerical grid orientation.
All volume elements are correctly orientend.
All surface elements are correctly orientend.
Identifying edges and vertices.
Setting the control volume structure.
Area of the computational grid: 32209.9.
Searching for the closest normal neighbors to the surfaces.
Storing a mapping from global to local point index.
Compute the surface curvature.
Max K: 158.987. Mean K: 7.31987. Standard deviation K: 21.7463.
Checking for periodicity.
Computing mesh quality statistics for the dual control volumes.
+--------------------------------------------------------------+
|           Mesh Quality Metric|        Minimum|        Maximum|
+--------------------------------------------------------------+
|    Orthogonality Angle (deg.)|        75.2882|        89.9991|
|     CV Face Area Aspect Ratio|        1.00152|        3358.36|
|           CV Sub-Volume Ratio|        1.00061|        1210.79|
+--------------------------------------------------------------+
Finding max control volume width.
Communicating number of neighbors.
Wetted area = 2.02334 m.
Area projection in the x-plane = 0.123906 m, y-plane = 0.995873 m.
Max. coordinate in the x-direction = 1 m, y-direction = 0.0635971 m.
Min. coordinate in the x-direction = 0 m, y-direction = -0.0593595 m.
Computing wall distances.

-------------------- Solver Preprocessing ( Zone 0 ) --------------------
WARNING: AoA in the solution file (2.78341 deg.) +
         AoA offset in mesh file (0 deg.) = 2.78341 deg.
WARNING: SU2 will use the dCD/dCL provided in the direct solution file: 0.0191734.
WARNING: SU2 will use the dCMz/dCL provided in the direct solution file: -0.000959743.
Viscous flow: Computing pressure using the ideal gas law
based on the free-stream temperature and a density computed
from the Reynolds number.
Force coefficients computed using free-stream values.

-- Models:
+------------------------------------------------------------------------------+
|          Viscosity Model|        Conductivity Model|              Fluid Model|
+------------------------------------------------------------------------------+
|               SUTHERLAND|          CONSTANT_PRANDTL|             STANDARD_AIR|
+------------------------------------------------------------------------------+
-- Fluid properties:
+------------------------------------------------------------------------------+
|                  Name|    Dim. value|    Ref. value|      Unit|Non-dim. value|
+------------------------------------------------------------------------------+
|        Ref. Viscosity|     1.716e-05|             1|   N.s/m^2|     1.716e-05|
|      Sutherland Temp.|        273.15|             1|         K|        273.15|
|     Sutherland Const.|         110.4|             1|         K|         110.4|
+------------------------------------------------------------------------------+
|        Prandtl (Lam.)|             -|             -|         -|          0.71|
|       Prandtl (Turb.)|             -|             -|         -|           0.9|
+------------------------------------------------------------------------------+
|          Gas Constant|       287.058|             1|  N.m/kg.K|       287.058|
|      Spec. Heat Ratio|             -|             -|         -|           1.4|
+------------------------------------------------------------------------------+
-- Initial and free-stream conditions:
+------------------------------------------------------------------------------+
|                  Name|    Dim. value|    Ref. value|      Unit|Non-dim. value|
+------------------------------------------------------------------------------+
|       Static Pressure|         38515|             1|        Pa|         38515|
|               Density|      0.465631|             1|    kg/m^3|      0.465631|
|           Temperature|        288.15|             1|         K|        288.15|
|          Total Energy|        237984|             1|   m^2/s^2|        237984|
|            Velocity-X|       249.483|             1|       m/s|       249.483|
|            Velocity-Y|       12.1294|             1|       m/s|       12.1294|
|    Velocity Magnitude|       249.778|             1|       m/s|       249.778|
+------------------------------------------------------------------------------+
|             Viscosity|    1.7893e-05|             1|   N.s/m^2|    1.7893e-05|
|          Conductivity|             -|             1|   W/m^2.K|             -|
|     Turb. Kin. Energy|       233.959|             1|   m^2/s^2|       233.959|
|     Spec. Dissipation|        608834|             1|       1/s|        608834|
+------------------------------------------------------------------------------+
|           Mach Number|             -|             -|         -|         0.734|
|       Reynolds Number|             -|             -|         -|       6.5e+06|
+------------------------------------------------------------------------------+
Initialize Jacobian structure (Navier-Stokes). MG level: 0.
Initialize Jacobian structure (SA model).

------------------- Numerics Preprocessing ( Zone 0 ) -------------------

----------------- Integration Preprocessing ( Zone 0 ) ------------------

------------------- Iteration Preprocessing ( Zone 0 ) ------------------
Euler/Navier-Stokes/RANS fluid iteration.

------------------------------ Begin Solver -----------------------------

Simulation Run using the Single-zone Driver
WARNING: SU2 was not compiled for an AVX-capable architecture. Performance could be better,
         see https://su2code.github.io/docs_v7/Build-SU2-Linux-MacOS/#compiler-optimizations
+----------------------------------------------------------------+
|  Inner_Iter|    rms[Rho]|     rms[nu]|          CL|          CD|
+----------------------------------------------------------------+
|           0|   -5.142830|   -6.380651|    0.824026|    0.012157|
|           1|   -5.198427|   -6.487861|    0.824036|    0.012156|
|           2|   -5.261330|   -6.607482|    0.824034|    0.012155|
|           3|   -5.317306|   -6.730492|    0.824025|    0.012153|
|           4|   -5.362748|   -6.845624|    0.824015|    0.012153|
|           5|   -5.393559|   -6.939464|    0.824007|    0.012152|
|           6|   -5.408036|   -7.001875|    0.824002|    0.012153|
|           7|   -5.409443|   -7.029691|    0.824001|    0.012153|
|           8|   -5.403243|   -7.028117|    0.824003|    0.012155|
|           9|   -5.393591|   -7.009791|    0.824008|    0.012157|
|          10|   -5.382607|   -6.988695|    0.824015|    0.012159|
|          11|   -5.371296|   -6.973753|    0.824023|    0.012162|
|          12|   -5.360283|   -6.968604|    0.824032|    0.012166|
|          13|   -5.349989|   -6.973252|    0.824041|    0.012169|
|          14|   -5.340665|   -6.984841|    0.824049|    0.012173|
|          15|   -5.332490|   -6.997514|    0.824056|    0.012177|
|          16|   -5.325661|   -7.003096|    0.824062|    0.012181|
|          17|   -5.320345|   -6.994823|    0.824065|    0.012185|
|          18|   -5.316518|   -6.972458|    0.824066|    0.012188|
|          19|   -5.313840|   -6.942457|    0.824066|    0.012191|
|          20|   -5.311681|   -6.912932|    0.824063|    0.012194|
|          21|   -5.309327|   -6.889723|    0.824059|    0.012196|
|          22|   -5.306276|   -6.875750|    0.824054|    0.012198|
|          23|   -5.302452|   -6.871788|    0.824047|    0.012199|
|          24|   -5.298228|   -6.877228|    0.824041|    0.012200|
|          25|   -5.294234|   -6.890484|    0.824034|    0.012201|
|          26|   -5.291094|   -6.909132|    0.824027|    0.012201|
|          27|   -5.289216|   -6.930022|    0.824021|    0.012201|
|          28|   -5.288693|   -6.949601|    0.824016|    0.012201|
|          29|   -5.289325|   -6.964671|    0.824011|    0.012200|
|          30|   -5.290720|   -6.973381|    0.824007|    0.012200|
|          31|   -5.292418|   -6.975843|    0.824004|    0.012200|
|          32|   -5.294016|   -6.973830|    0.824001|    0.012199|
|          33|   -5.295248|   -6.969849|    0.824000|    0.012199|
|          34|   -5.296009|   -6.966226|    0.823998|    0.012199|
|          35|   -5.296339|   -6.964583|    0.823997|    0.012199|
|          36|   -5.296376|   -6.965880|    0.823997|    0.012199|
|          37|   -5.296301|   -6.970457|    0.823996|    0.012199|
|          38|   -5.296298|   -6.978165|    0.823996|    0.012199|
|          39|   -5.296519|   -6.988480|    0.823995|    0.012199|
|          40|   -5.297071|   -7.000579|    0.823994|    0.012200|
|          41|   -5.298013|   -7.013428|    0.823993|    0.012200|
|          42|   -5.299356|   -7.025863|    0.823991|    0.012201|
|          43|   -5.301074|   -7.036724|    0.823989|    0.012201|
|          44|   -5.303112|   -7.045025|    0.823987|    0.012202|
|          45|   -5.305401|   -7.050117|    0.823984|    0.012202|
|          46|   -5.307864|   -7.051794|    0.823980|    0.012202|
|          47|   -5.310429|   -7.050294|    0.823976|    0.012202|
|          48|   -5.313037|   -7.046198|    0.823972|    0.012202|
|          49|   -5.315638|   -7.040261|    0.823968|    0.012202|
|          50|   -5.318200|   -7.033256|    0.823963|    0.012202|
|          51|   -5.320705|   -7.025854|    0.823958|    0.012201|
|          52|   -5.323147|   -7.018565|    0.823953|    0.012201|
|          53|   -5.325530|   -7.011723|    0.823948|    0.012200|
|          54|   -5.327865|   -7.005502|    0.823944|    0.012199|
|          55|   -5.330170|   -6.999951|    0.823939|    0.012198|
|          56|   -5.332460|   -6.995037|    0.823935|    0.012197|
|          57|   -5.334750|   -6.990681|    0.823931|    0.012195|
|          58|   -5.337043|   -6.986798|    0.823928|    0.012194|
|          59|   -5.339338|   -6.983318|    0.823925|    0.012193|
|          60|   -5.341624|   -6.980201|    0.823923|    0.012191|
|          61|   -5.343887|   -6.977444|    0.823921|    0.012190|
|          62|   -5.346111|   -6.975071|    0.823919|    0.012189|
|          63|   -5.348289|   -6.973120|    0.823918|    0.012187|
|          64|   -5.350420|   -6.971631|    0.823917|    0.012186|
|          65|   -5.352515|   -6.970631|    0.823917|    0.012185|
|          66|   -5.354593|   -6.970122|    0.823917|    0.012183|
|          67|   -5.356679|   -6.970098|    0.823917|    0.012182|
|          68|   -5.358802|   -6.970491|    0.823917|    0.012181|
|          69|   -5.360985|   -6.971230|    0.823918|    0.012179|
|          70|   -5.363243|   -6.972235|    0.823919|    0.012178|
|          71|   -5.365583|   -6.973421|    0.823919|    0.012177|
|          72|   -5.368001|   -6.974701|    0.823920|    0.012176|
|          73|   -5.370485|   -6.976001|    0.823921|    0.012175|
|          74|   -5.373020|   -6.977259|    0.823922|    0.012174|
|          75|   -5.375586|   -6.978433|    0.823923|    0.012173|
|          76|   -5.378168|   -6.979492|    0.823924|    0.012171|
|          77|   -5.380752|   -6.980420|    0.823925|    0.012170|
|          78|   -5.383328|   -6.981210|    0.823926|    0.012169|
|          79|   -5.385889|   -6.981869|    0.823927|    0.012168|
|          80|   -5.388425|   -6.982396|    0.823928|    0.012167|
|          81|   -5.390926|   -6.982791|    0.823929|    0.012166|
|          82|   -5.393374|   -6.983062|    0.823930|    0.012165|
|          83|   -5.395744|   -6.983217|    0.823930|    0.012165|
|          84|   -5.398004|   -6.983263|    0.823931|    0.012164|
|          85|   -5.400118|   -6.983212|    0.823932|    0.012163|
|          86|   -5.402048|   -6.983074|    0.823933|    0.012162|
|          87|   -5.403758|   -6.982864|    0.823933|    0.012161|
|          88|   -5.405223|   -6.982596|    0.823934|    0.012160|
|          89|   -5.406428|   -6.982285|    0.823935|    0.012159|
|          90|   -5.407373|   -6.981944|    0.823935|    0.012158|
|          91|   -5.408074|   -6.981588|    0.823936|    0.012158|
|          92|   -5.408563|   -6.981228|    0.823937|    0.012157|
|          93|   -5.408881|   -6.980875|    0.823938|    0.012156|
|          94|   -5.409081|   -6.980538|    0.823939|    0.012155|
|          95|   -5.409220|   -6.980224|    0.823940|    0.012155|
|          96|   -5.409353|   -6.979941|    0.823941|    0.012154|
|          97|   -5.409536|   -6.979696|    0.823942|    0.012153|
|          98|   -5.409814|   -6.979495|    0.823943|    0.012153|
|          99|   -5.410230|   -6.979346|    0.823945|    0.012152|
|         100|   -5.410813|   -6.979255|    0.823946|    0.012152|
|         101|   -5.411584|   -6.979229|    0.823948|    0.012156|
+-----------------------------------------------------------------------+
|Fixed CL Mode                           |Value                         |
+-----------------------------------------------------------------------+
|Current CL                              |0.823948                      |
|Target CL                               |0.824                         |
|Previous AOA                            |2.78341                       |
|Changed AoA by                          |0.000269621                   |
+-----------------------------------------------------------------------+
+----------------------------------------------------------------+
|  Inner_Iter|    rms[Rho]|     rms[nu]|          CL|          CD|
+----------------------------------------------------------------+
|         102|   -3.762565|   -6.975682|    0.823949|    0.012155|
|         103|   -4.147793|   -6.977662|    0.823951|    0.012155|
|         104|   -4.394926|   -6.978393|    0.823953|    0.012155|
|         105|   -4.475617|   -6.978957|    0.823956|    0.012155|
|         106|   -4.529369|   -6.979526|    0.823958|    0.012155|
|         107|   -4.598199|   -6.980143|    0.823960|    0.012155|
|         108|   -4.682322|   -6.980824|    0.823962|    0.012155|
|         109|   -4.768143|   -6.981576|    0.823965|    0.012155|
|         110|   -4.838885|   -6.982402|    0.823967|    0.012155|
|         111|   -4.887502|   -6.983303|    0.823970|    0.012156|
|         112|   -4.917552|   -6.984279|    0.823972|    0.012156|
|         113|   -4.934180|   -6.985329|    0.823975|    0.012156|
|         114|   -4.941564|   -6.986455|    0.823977|    0.012157|
|         115|   -4.944818|   -6.987656|    0.823979|    0.012157|
|         116|   -4.949365|   -6.988927|    0.823982|    0.012158|
|         117|   -4.958745|   -6.990262|    0.823984|    0.012158|
|         118|   -4.973630|   -6.991656|    0.823986|    0.012158|
|         119|   -4.992289|   -6.993105|    0.823988|    0.012159|
|         120|   -5.011916|   -6.994608|    0.823990|    0.012160|
|         121|   -5.030228|   -6.996165|    0.823992|    0.012160|
|         122|   -5.046535|   -6.997775|    0.823994|    0.012161|
|         123|   -5.061590|   -6.999439|    0.823995|    0.012161|
|         124|   -5.076583|   -7.001159|    0.823997|    0.012162|
|         125|   -5.092210|   -7.002937|    0.823999|    0.012162|
|         126|   -5.108383|   -7.004775|    0.824000|    0.012163|
|         127|   -5.124440|   -7.006676|    0.824002|    0.012164|
|         128|   -5.139520|   -7.008644|    0.824003|    0.012164|
|         129|   -5.152861|   -7.010682|    0.824005|    0.012165|
|         130|   -5.163962|   -7.012794|    0.824006|    0.012165|
|         131|   -5.172669|   -7.014984|    0.824008|    0.012166|
|         132|   -5.179228|   -7.017255|    0.824009|    0.012167|
|         133|   -5.184253|   -7.019611|    0.824010|    0.012167|
|         134|   -5.188589|   -7.022056|    0.824012|    0.012168|
|         135|   -5.193094|   -7.024593|    0.824013|    0.012169|
|         136|   -5.198448|   -7.027228|    0.824014|    0.012169|
|         137|   -5.205030|   -7.029963|    0.824015|    0.012170|
|         138|   -5.212874|   -7.032801|    0.824017|    0.012171|
|         139|   -5.221690|   -7.035747|    0.824018|    0.012171|
|         140|   -5.230921|   -7.038802|    0.824019|    0.012172|
|         141|   -5.239848|   -7.041971|    0.824021|    0.012173|
|         142|   -5.247742|   -7.045255|    0.824022|    0.012174|
|         143|   -5.254047|   -7.048655|    0.824023|    0.012174|
|         144|   -5.258528|   -7.052172|    0.824025|    0.012175|
|         145|   -5.261332|   -7.055806|    0.824026|    0.012176|
|         146|   -5.262915|   -7.059555|    0.824028|    0.012176|
|         147|   -5.263882|   -7.063417|    0.824029|    0.012177|
|         148|   -5.264817|   -7.067388|    0.824030|    0.012178|
|         149|   -5.266147|   -7.071465|    0.824032|    0.012178|
|         150|   -5.268083|   -7.075643|    0.824033|    0.012179|
|         151|   -5.270626|   -7.079919|    0.824035|    0.012180|
|         152|   -5.273612|   -7.084286|    0.824036|    0.012180|
|         153|   -5.276786|   -7.088743|    0.824038|    0.012181|
|         154|   -5.279878|   -7.093285|    0.824040|    0.012181|
|         155|   -5.282667|   -7.097912|    0.824041|    0.012182|
|         156|   -5.285023|   -7.102621|    0.824043|    0.012182|
|         157|   -5.286918|   -7.107413|    0.824045|    0.012183|
|         158|   -5.288413|   -7.112285|    0.824047|    0.012183|
|         159|   -5.289627|   -7.117241|    0.824049|    0.012184|
|         160|   -5.290695|   -7.122286|    0.824050|    0.012184|
|         161|   -5.291744|   -7.127421|    0.824052|    0.012185|
|         162|   -5.292869|   -7.132654|    0.824054|    0.012185|
|         163|   -5.294128|   -7.137991|    0.824056|    0.012185|
|         164|   -5.295544|   -7.143442|    0.824058|    0.012186|
|         165|   -5.297114|   -7.149015|    0.824060|    0.012186|
|         166|   -5.298820|   -7.154721|    0.824062|    0.012186|
|         167|   -5.300638|   -7.160568|    0.824064|    0.012186|
|         168|   -5.302546|   -7.166567|    0.824066|    0.012187|
|         169|   -5.304524|   -7.172726|    0.824068|    0.012187|
|         170|   -5.306559|   -7.179053|    0.824070|    0.012187|
|         171|   -5.308639|   -7.185556|    0.824072|    0.012187|
|         172|   -5.310754|   -7.192241|    0.824074|    0.012187|
|         173|   -5.312896|   -7.199113|    0.824076|    0.012187|
|         174|   -5.315055|   -7.206175|    0.824078|    0.012187|
|         175|   -5.317220|   -7.213430|    0.824080|    0.012187|
|         176|   -5.319377|   -7.220877|    0.824081|    0.012187|
|         177|   -5.321515|   -7.228514|    0.824083|    0.012187|
|         178|   -5.323622|   -7.236338|    0.824084|    0.012187|
|         179|   -5.325689|   -7.244341|    0.824086|    0.012187|
|         180|   -5.327708|   -7.252517|    0.824087|    0.012187|
|         181|   -5.329676|   -7.260854|    0.824088|    0.012186|
|         182|   -5.331592|   -7.269340|    0.824089|    0.012186|
|         183|   -5.333458|   -7.277964|    0.824090|    0.012186|
|         184|   -5.335281|   -7.286709|    0.824091|    0.012186|
|         185|   -5.337069|   -7.295563|    0.824091|    0.012185|
|         186|   -5.338836|   -7.304507|    0.824092|    0.012185|
|         187|   -5.340596|   -7.313524|    0.824092|    0.012185|
|         188|   -5.342367|   -7.322598|    0.824093|    0.012184|
|         189|   -5.344167|   -7.331709|    0.824093|    0.012184|
|         190|   -5.346014|   -7.340842|    0.824093|    0.012183|
|         191|   -5.347926|   -7.349978|    0.824093|    0.012183|
|         192|   -5.349919|   -7.359100|    0.824093|    0.012183|
|         193|   -5.352003|   -7.368193|    0.824093|    0.012182|
|         194|   -5.354186|   -7.377239|    0.824093|    0.012182|
|         195|   -5.356471|   -7.386224|    0.824093|    0.012181|
|         196|   -5.358852|   -7.395131|    0.824092|    0.012181|
|         197|   -5.361318|   -7.403947|    0.824092|    0.012180|
|         198|   -5.363853|   -7.412657|    0.824092|    0.012180|
|         199|   -5.366431|   -7.421245|    0.824091|    0.012179|
|         200|   -5.369019|   -7.429694|    0.824091|    0.012179|
|         201|   -5.371583|   -7.437988|    0.824091|    0.012171|
+-----------------------------------------------------------------------+
|Fixed CL Mode                           |Value                         |
+-----------------------------------------------------------------------+
|Current CL                              |0.824091                      |
|Target CL                               |0.824                         |
|Previous AOA                            |2.78368                       |
|Changed AoA by                          |-0.000455553                  |
+-----------------------------------------------------------------------+
+----------------------------------------------------------------+
|  Inner_Iter|    rms[Rho]|     rms[nu]|          CL|          CD|
+----------------------------------------------------------------+
|         202|   -3.534799|   -7.370166|    0.824090|    0.012171|
|         203|   -3.919185|   -7.411881|    0.824090|    0.012170|
|         204|   -4.163166|   -7.429988|    0.824090|    0.012170|
|         205|   -4.242132|   -7.443090|    0.824089|    0.012169|
|         206|   -4.296023|   -7.454376|    0.824089|    0.012169|
|         207|   -4.365984|   -7.464573|    0.824089|    0.012168|
|         208|   -4.452484|   -7.473873|    0.824089|    0.012168|
|         209|   -4.542647|   -7.482358|    0.824089|    0.012167|
|         210|   -4.619687|   -7.490057|    0.824088|    0.012167|
|         211|   -4.675070|   -7.496936|    0.824088|    0.012167|
|         212|   -4.710633|   -7.502985|    0.824088|    0.012166|
|         213|   -4.730629|   -7.508297|    0.824088|    0.012166|
|         214|   -4.739233|   -7.513038|    0.824089|    0.012165|
|         215|   -4.742337|   -7.517341|    0.824089|    0.012165|
|         216|   -4.746365|   -7.521258|    0.824089|    0.012165|
|         217|   -4.755533|   -7.524789|    0.824090|    0.012164|
|         218|   -4.770733|   -7.527941|    0.824090|    0.012164|
|         219|   -4.790114|   -7.530754|    0.824091|    0.012164|
|         220|   -4.810548|   -7.533296|    0.824091|    0.012163|
|         221|   -4.829430|   -7.535628|    0.824092|    0.012163|
|         222|   -4.845918|   -7.537800|    0.824093|    0.012163|
|         223|   -4.860836|   -7.539835|    0.824094|    0.012163|
|         224|   -4.875542|   -7.541745|    0.824095|    0.012163|
|         225|   -4.890892|   -7.543545|    0.824096|    0.012163|
|         226|   -4.906894|   -7.545254|    0.824097|    0.012162|
|         227|   -4.922945|   -7.546914|    0.824098|    0.012162|
|         228|   -4.938226|   -7.548562|    0.824100|    0.012162|
|         229|   -4.951999|   -7.550240|    0.824101|    0.012162|
|         230|   -4.963754|   -7.551984|    0.824102|    0.012162|
|         231|   -4.973297|   -7.553827|    0.824104|    0.012162|
|         232|   -4.980816|   -7.555796|    0.824105|    0.012163|
|         233|   -4.986894|   -7.557913|    0.824107|    0.012163|
|         234|   -4.992388|   -7.560193|    0.824108|    0.012163|
|         235|   -4.998223|   -7.562638|    0.824110|    0.012163|
|         236|   -5.005180|   -7.565246|    0.824112|    0.012163|
|         237|   -5.013756|   -7.568001|    0.824113|    0.012163|
|         238|   -5.024097|   -7.570881|    0.824115|    0.012163|
|         239|   -5.035998|   -7.573860|    0.824116|    0.012164|
|         240|   -5.048934|   -7.576907|    0.824118|    0.012164|
|         241|   -5.062144|   -7.579988|    0.824119|    0.012164|
|         242|   -5.074771|   -7.583063|    0.824121|    0.012164|
|         243|   -5.086072|   -7.586104|    0.824122|    0.012165|
|         244|   -5.095624|   -7.589087|    0.824123|    0.012165|
|         245|   -5.103457|   -7.591982|    0.824124|    0.012165|
|         246|   -5.110023|   -7.594765|    0.824125|    0.012166|
|         247|   -5.116037|   -7.597418|    0.824126|    0.012166|
|         248|   -5.122254|   -7.599925|    0.824126|    0.012166|
|         249|   -5.129282|   -7.602275|    0.824127|    0.012167|
|         250|   -5.137478|   -7.604476|    0.824127|    0.012167|
|         251|   -5.146910|   -7.606528|    0.824127|    0.012167|
|         252|   -5.157401|   -7.608442|    0.824127|    0.012167|
|         253|   -5.168596|   -7.610246|    0.824126|    0.012168|
|         254|   -5.180060|   -7.611975|    0.824125|    0.012168|
|         255|   -5.191374|   -7.613660|    0.824125|    0.012168|
|         256|   -5.202223|   -7.615353|    0.824123|    0.012168|
|         257|   -5.212443|   -7.617120|    0.824122|    0.012169|
|         258|   -5.222029|   -7.619035|    0.824120|    0.012169|
|         259|   -5.231104|   -7.621179|    0.824119|    0.012169|
|         260|   -5.239862|   -7.623636|    0.824116|    0.012169|
|         261|   -5.248506|   -7.626494|    0.824114|    0.012169|
|         262|   -5.257206|   -7.629838|    0.824112|    0.012170|
|         263|   -5.266073|   -7.633745|    0.824109|    0.012170|
|         264|   -5.275150|   -7.638283|    0.824106|    0.012170|
|         265|   -5.284429|   -7.643509|    0.824103|    0.012170|
|         266|   -5.293864|   -7.649466|    0.824100|    0.012170|
|         267|   -5.303392|   -7.656179|    0.824097|    0.012170|
|         268|   -5.312949|   -7.663653|    0.824093|    0.012170|
|         269|   -5.322477|   -7.671862|    0.824090|    0.012170|
|         270|   -5.331926|   -7.680751|    0.824087|    0.012170|
|         271|   -5.341251|   -7.690226|    0.824083|    0.012170|
|         272|   -5.350408|   -7.700154|    0.824080|    0.012170|
|         273|   -5.359346|   -7.710350|    0.824077|    0.012170|
|         274|   -5.368009|   -7.720586|    0.824073|    0.012170|
|         275|   -5.376331|   -7.730585|    0.824070|    0.012170|
|         276|   -5.384239|   -7.740033|    0.824068|    0.012170|
|         277|   -5.391664|   -7.748589|    0.824065|    0.012170|
|         278|   -5.398540|   -7.755910|    0.824062|    0.012170|
|         279|   -5.404812|   -7.761684|    0.824060|    0.012170|
|         280|   -5.410439|   -7.765661|    0.824058|    0.012170|
|         281|   -5.415401|   -7.767687|    0.824056|    0.012170|
|         282|   -5.419692|   -7.767724|    0.824055|    0.012170|
|         283|   -5.423329|   -7.765862|    0.824053|    0.012170|
|         284|   -5.426344|   -7.762303|    0.824052|    0.012170|
|         285|   -5.428783|   -7.757346|    0.824052|    0.012170|
|         286|   -5.430705|   -7.751344|    0.824051|    0.012170|
|         287|   -5.432178|   -7.744680|    0.824051|    0.012170|
|         288|   -5.433274|   -7.737728|    0.824051|    0.012170|
|         289|   -5.434070|   -7.730841|    0.824051|    0.012170|
|         290|   -5.434642|   -7.724332|    0.824052|    0.012170|
|         291|   -5.435061|   -7.718466|    0.824053|    0.012170|
|         292|   -5.435396|   -7.713466|    0.824054|    0.012170|
|         293|   -5.435710|   -7.709506|    0.824055|    0.012170|
|         294|   -5.436057|   -7.706722|    0.824057|    0.012170|
|         295|   -5.436483|   -7.705213|    0.824058|    0.012170|
|         296|   -5.437027|   -7.705052|    0.824060|    0.012170|
|         297|   -5.437719|   -7.706283|    0.824062|    0.012170|
|         298|   -5.438583|   -7.708933|    0.824064|    0.012170|
|         299|   -5.439635|   -7.713002|    0.824066|    0.012170|
|         300|   -5.440884|   -7.718471|    0.824069|    0.012170|
|         301|   -5.442335|   -7.725303|    0.824071|    0.012165|
+-----------------------------------------------------------------------+
|Fixed CL Mode                           |Value                         |
+-----------------------------------------------------------------------+
|Current CL                              |0.824071                      |
|Target CL                               |0.824                         |
|Previous AOA                            |2.78323                       |
|Changed AoA by                          |-0.000342964                  |
+-----------------------------------------------------------------------+
+----------------------------------------------------------------+
|  Inner_Iter|    rms[Rho]|     rms[nu]|          CL|          CD|
+----------------------------------------------------------------+
|         302|   -3.658006|   -7.593228|    0.824074|    0.012165|
|         303|   -4.041434|   -7.659244|    0.824076|    0.012164|
|         304|   -4.282765|   -7.688809|    0.824079|    0.012164|
|         305|   -4.360372|   -7.710928|    0.824081|    0.012164|
|         306|   -4.413683|   -7.730863|    0.824084|    0.012164|
|         307|   -4.482870|   -7.749771|    0.824087|    0.012164|
|         308|   -4.568263|   -7.767906|    0.824089|    0.012164|
|         309|   -4.657454|   -7.785339|    0.824092|    0.012164|
|         310|   -4.734650|   -7.802002|    0.824095|    0.012164|
|         311|   -4.791919|   -7.817622|    0.824097|    0.012163|
|         312|   -4.830649|   -7.831905|    0.824100|    0.012163|
|         313|   -4.854111|   -7.844785|    0.824103|    0.012163|
|         314|   -4.865600|   -7.856383|    0.824105|    0.012163|
|         315|   -4.870630|   -7.866800|    0.824108|    0.012163|
|         316|   -4.875784|   -7.875957|    0.824110|    0.012163|
|         317|   -4.885655|   -7.883664|    0.824112|    0.012162|
|         318|   -4.901480|   -7.889803|    0.824114|    0.012162|
|         319|   -4.921670|   -7.894428|    0.824117|    0.012162|
|         320|   -4.943288|   -7.897723|    0.824119|    0.012162|
|         321|   -4.963853|   -7.899898|    0.824121|    0.012162|
|         322|   -4.982576|   -7.901107|    0.824122|    0.012162|
|         323|   -5.000266|   -7.901425|    0.824124|    0.012161|
|         324|   -5.018213|   -7.900890|    0.824126|    0.012161|
|         325|   -5.037124|   -7.899551|    0.824127|    0.012161|
|         326|   -5.056764|   -7.897480|    0.824129|    0.012161|
|         327|   -5.076195|   -7.894819|    0.824130|    0.012161|
|         328|   -5.094243|   -7.891730|    0.824131|    0.012161|
|         329|   -5.109890|   -7.888376|    0.824133|    0.012160|
|         330|   -5.122507|   -7.884913|    0.824134|    0.012160|
|         331|   -5.131976|   -7.881473|    0.824135|    0.012160|
|         332|   -5.138730|   -7.878163|    0.824135|    0.012160|
|         333|   -5.143672|   -7.875052|    0.824136|    0.012160|
|         334|   -5.147965|   -7.872174|    0.824137|    0.012160|
|         335|   -5.152739|   -7.869529|    0.824137|    0.012160|
|         336|   -5.158857|   -7.867086|    0.824137|    0.012160|
|         337|   -5.166782|   -7.864797|    0.824138|    0.012159|
|         338|   -5.176540|   -7.862605|    0.824138|    0.012159|
|         339|   -5.187747|   -7.860456|    0.824138|    0.012159|
|         340|   -5.199670|   -7.858299|    0.824138|    0.012159|
|         341|   -5.211347|   -7.856090|    0.824138|    0.012159|
|         342|   -5.221780|   -7.853797|    0.824138|    0.012159|
|         343|   -5.230188|   -7.851399|    0.824138|    0.012159|
|         344|   -5.236245|   -7.848884|    0.824137|    0.012159|
|         345|   -5.240170|   -7.846248|    0.824137|    0.012159|
|         346|   -5.242637|   -7.843492|    0.824137|    0.012159|
|         347|   -5.244538|   -7.840612|    0.824136|    0.012159|
|         348|   -5.246727|   -7.837601|    0.824135|    0.012159|
|         349|   -5.249831|   -7.834450|    0.824135|    0.012159|
|         350|   -5.254174|   -7.831145|    0.824134|    0.012160|
|         351|   -5.259778|   -7.827678|    0.824133|    0.012160|
|         352|   -5.266424|   -7.824030|    0.824132|    0.012160|
|         353|   -5.273748|   -7.820202|    0.824131|    0.012160|
|         354|   -5.281340|   -7.816183|    0.824130|    0.012160|
|         355|   -5.288839|   -7.811968|    0.824129|    0.012160|
|         356|   -5.296007|   -7.807558|    0.824128|    0.012160|
|         357|   -5.302753|   -7.802956|    0.824126|    0.012160|
|         358|   -5.309131|   -7.798180|    0.824125|    0.012161|
|         359|   -5.315299|   -7.793261|    0.824123|    0.012161|
|         360|   -5.321458|   -7.788237|    0.824122|    0.012161|
|         361|   -5.327809|   -7.783154|    0.824120|    0.012161|
|         362|   -5.334514|   -7.778067|    0.824118|    0.012161|
|         363|   -5.341679|   -7.773033|    0.824116|    0.012161|
|         364|   -5.349356|   -7.768118|    0.824114|    0.012161|
|         365|   -5.357556|   -7.763385|    0.824112|    0.012162|
|         366|   -5.366264|   -7.758902|    0.824110|    0.012162|
|         367|   -5.375458|   -7.754734|    0.824108|    0.012162|
|         368|   -5.385114|   -7.750943|    0.824106|    0.012162|
|         369|   -5.395220|   -7.747587|    0.824103|    0.012162|
|         370|   -5.405773|   -7.744714|    0.824101|    0.012162|
|         371|   -5.416774|   -7.742367|    0.824099|    0.012163|
|         372|   -5.428227|   -7.740575|    0.824097|    0.012163|
|         373|   -5.440130|   -7.739354|    0.824095|    0.012163|
|         374|   -5.452471|   -7.738709|    0.824093|    0.012163|
|         375|   -5.465227|   -7.738627|    0.824090|    0.012163|
|         376|   -5.478362|   -7.739081|    0.824088|    0.012163|
|         377|   -5.491826|   -7.740025|    0.824087|    0.012163|
|         378|   -5.505558|   -7.741396|    0.824085|    0.012164|
|         379|   -5.519487|   -7.743117|    0.824083|    0.012164|
|         380|   -5.533534|   -7.745090|    0.824082|    0.012164|
|         381|   -5.547612|   -7.747209|    0.824080|    0.012164|
|         382|   -5.561628|   -7.749355|    0.824079|    0.012164|
|         383|   -5.575483|   -7.751404|    0.824078|    0.012164|
|         384|   -5.589075|   -7.753234|    0.824077|    0.012164|
|         385|   -5.602300|   -7.754729|    0.824076|    0.012164|
|         386|   -5.615057|   -7.755788|    0.824075|    0.012164|
|         387|   -5.627248|   -7.756333|    0.824075|    0.012164|
|         388|   -5.638784|   -7.756314|    0.824074|    0.012164|
|         389|   -5.649585|   -7.755711|    0.824074|    0.012164|
|         390|   -5.659589|   -7.754539|    0.824074|    0.012164|
|         391|   -5.668747|   -7.752846|    0.824074|    0.012164|
|         392|   -5.677031|   -7.750709|    0.824074|    0.012164|
|         393|   -5.684429|   -7.748229|    0.824075|    0.012164|
|         394|   -5.690946|   -7.745525|    0.824075|    0.012164|
|         395|   -5.696605|   -7.742723|    0.824076|    0.012164|
|         396|   -5.701440|   -7.739955|    0.824077|    0.012164|
|         397|   -5.705497|   -7.737347|    0.824078|    0.012164|
|         398|   -5.708829|   -7.735017|    0.824079|    0.012164|
|         399|   -5.711496|   -7.733067|    0.824080|    0.012164|
|         400|   -5.713562|   -7.731584|    0.824081|    0.012164|
|         401|   -5.715088|   -7.730637|    0.824082|    0.012158|
+-----------------------------------------------------------------------+
|Fixed CL Mode                           |Value                         |
+-----------------------------------------------------------------------+
|Current CL                              |0.824082                      |
|Target CL                               |0.824                         |
|Previous AOA                            |2.78288                       |
|Changed AoA by                          |-0.000405456                  |
+-----------------------------------------------------------------------+
+----------------------------------------------------------------+
|  Inner_Iter|    rms[Rho]|     rms[nu]|          CL|          CD|
+----------------------------------------------------------------+
|         402|   -3.585422|   -7.555677|    0.824084|    0.012158|
|         403|   -3.969348|   -7.627304|    0.824085|    0.012158|
|         404|   -4.211665|   -7.653886|    0.824087|    0.012158|
|         405|   -4.289599|   -7.670293|    0.824088|    0.012158|
|         406|   -4.343121|   -7.683214|    0.824090|    0.012158|
|         407|   -4.412848|   -7.694261|    0.824092|    0.012158|
|         408|   -4.499312|   -7.703943|    0.824093|    0.012158|
|         409|   -4.590169|   -7.712543|    0.824095|    0.012158|
|         410|   -4.669331|   -7.720208|    0.824097|    0.012158|
|         411|   -4.728321|   -7.726902|    0.824098|    0.012158|
|         412|   -4.768178|   -7.732599|    0.824100|    0.012158|
|         413|   -4.792099|   -7.737465|    0.824101|    0.012158|
|         414|   -4.803493|   -7.741792|    0.824103|    0.012158|
|         415|   -4.808182|   -7.745788|    0.824105|    0.012158|
|         416|   -4.813083|   -7.749465|    0.824106|    0.012158|
|         417|   -4.822973|   -7.752719|    0.824108|    0.012158|
|         418|   -4.839115|   -7.755461|    0.824109|    0.012158|
|         419|   -4.859819|   -7.757699|    0.824110|    0.012158|
|         420|   -4.881974|   -7.759503|    0.824112|    0.012158|
|         421|   -4.902929|   -7.760947|    0.824113|    0.012158|
|         422|   -4.921821|   -7.762049|    0.824114|    0.012158|
|         423|   -4.939510|   -7.762774|    0.824115|    0.012158|
|         424|   -4.957400|   -7.763058|    0.824116|    0.012158|
|         425|   -4.976303|   -7.762859|    0.824117|    0.012158|
|         426|   -4.996053|   -7.762162|    0.824118|    0.012158|
|         427|   -5.015744|   -7.761000|    0.824118|    0.012158|
|         428|   -5.034206|   -7.759449|    0.824119|    0.012158|
|         429|   -5.050398|   -7.757598|    0.824119|    0.012158|
|         430|   -5.063647|   -7.755535|    0.824120|    0.012158|
|         431|   -5.073780|   -7.753357|    0.824120|    0.012158|
|         432|   -5.081188|   -7.751144|    0.824120|    0.012158|
|         433|   -5.086775|   -7.748959|    0.824121|    0.012158|
|         434|   -5.091747|   -7.746845|    0.824121|    0.012158|
|         435|   -5.097312|   -7.744818|    0.824121|    0.012158|
|         436|   -5.104425|   -7.742879|    0.824121|    0.012158|
|         437|   -5.113640|   -7.741010|    0.824120|    0.012158|
|         438|   -5.125062|   -7.739181|    0.824120|    0.012158|
|         439|   -5.138356|   -7.737362|    0.824120|    0.012158|
|         440|   -5.152787|   -7.735519|    0.824120|    0.012158|
|         441|   -5.167328|   -7.733626|    0.824119|    0.012159|
|         442|   -5.180840|   -7.731655|    0.824119|    0.012159|
|         443|   -5.192355|   -7.729589|    0.824118|    0.012159|
|         444|   -5.201368|   -7.727425|    0.824117|    0.012159|
|         445|   -5.208004|   -7.725160|    0.824117|    0.012159|
|         446|   -5.212954|   -7.722799|    0.824116|    0.012159|
|         447|   -5.217224|   -7.720348|    0.824115|    0.012159|
|         448|   -5.221828|   -7.717807|    0.824114|    0.012159|
|         449|   -5.227551|   -7.715179|    0.824113|    0.012159|
|         450|   -5.234829|   -7.712463|    0.824112|    0.012159|
|         451|   -5.243742|   -7.709658|    0.824111|    0.012159|
|         452|   -5.254061|   -7.706767|    0.824109|    0.012159|
|         453|   -5.265352|   -7.703798|    0.824108|    0.012160|
|         454|   -5.277083|   -7.700754|    0.824106|    0.012160|
|         455|   -5.288751|   -7.697646|    0.824105|    0.012160|
|         456|   -5.299979|   -7.694471|    0.824103|    0.012160|
|         457|   -5.310580|   -7.691242|    0.824101|    0.012160|
|         458|   -5.320566|   -7.687982|    0.824099|    0.012160|
|         459|   -5.330108|   -7.684718|    0.824097|    0.012160|
|         460|   -5.339463|   -7.681488|    0.824095|    0.012160|
|         461|   -5.348903|   -7.678330|    0.824093|    0.012160|
|         462|   -5.358659|   -7.675290|    0.824090|    0.012160|
|         463|   -5.368889|   -7.672419|    0.824088|    0.012160|
|         464|   -5.379674|   -7.669768|    0.824086|    0.012161|
|         465|   -5.391035|   -7.667390|    0.824083|    0.012161|
|         466|   -5.402948|   -7.665337|    0.824080|    0.012161|
|         467|   -5.415374|   -7.663661|    0.824078|    0.012161|
|         468|   -5.428276|   -7.662405|    0.824075|    0.012161|
|         469|   -5.441629|   -7.661609|    0.824072|    0.012161|
|         470|   -5.455421|   -7.661302|    0.824070|    0.012161|
|         471|   -5.469653|   -7.661505|    0.824067|    0.012161|
|         472|   -5.484327|   -7.662221|    0.824064|    0.012161|
|         473|   -5.499436|   -7.663441|    0.824062|    0.012161|
|         474|   -5.514959|   -7.665139|    0.824059|    0.012161|
|         475|   -5.530854|   -7.667269|    0.824057|    0.012161|
|         476|   -5.547054|   -7.669769|    0.824054|    0.012161|
|         477|   -5.563471|   -7.672560|    0.824052|    0.012162|
|         478|   -5.579996|   -7.675543|    0.824050|    0.012162|
|         479|   -5.596500|   -7.678605|    0.824049|    0.012162|
|         480|   -5.612844|   -7.681626|    0.824047|    0.012162|
|         481|   -5.628876|   -7.684474|    0.824046|    0.012162|
|         482|   -5.644443|   -7.687022|    0.824044|    0.012162|
|         483|   -5.659392|   -7.689148|    0.824043|    0.012162|
|         484|   -5.673576|   -7.690746|    0.824042|    0.012162|
|         485|   -5.686863|   -7.691734|    0.824042|    0.012162|
|         486|   -5.699144|   -7.692058|    0.824041|    0.012162|
|         487|   -5.710336|   -7.691698|    0.824041|    0.012162|
|         488|   -5.720393|   -7.690671|    0.824041|    0.012162|
|         489|   -5.729303|   -7.689025|    0.824042|    0.012162|
|         490|   -5.737094|   -7.686843|    0.824042|    0.012162|
|         491|   -5.743825|   -7.684228|    0.824043|    0.012162|
|         492|   -5.749587|   -7.681303|    0.824044|    0.012162|
|         493|   -5.754487|   -7.678199|    0.824045|    0.012162|
|         494|   -5.758648|   -7.675051|    0.824046|    0.012162|
|         495|   -5.762195|   -7.671987|    0.824047|    0.012162|
|         496|   -5.765250|   -7.669127|    0.824049|    0.012162|
|         497|   -5.767927|   -7.666575|    0.824051|    0.012162|
|         498|   -5.770327|   -7.664421|    0.824052|    0.012162|
|         499|   -5.772540|   -7.662732|    0.824054|    0.012162|
|         500|   -5.774637|   -7.661560|    0.824056|    0.012162|
|         501|   -5.776675|   -7.660935|    0.824058|    0.012158|
+-----------------------------------------------------------------------+
|Fixed CL Mode                           |Value                         |
+-----------------------------------------------------------------------+
|Current CL                              |0.824058                      |
|Target CL                               |0.824                         |
|Previous AOA                            |2.78248                       |
|Changed AoA by                          |-0.00028114                   |
+-----------------------------------------------------------------------+
+----------------------------------------------------------------+
|  Inner_Iter|    rms[Rho]|     rms[nu]|          CL|          CD|
+----------------------------------------------------------------+
|         502|   -3.744433|   -7.582670|    0.824061|    0.012158|
|         503|   -4.128045|   -7.619024|    0.824063|    0.012158|
|         504|   -4.369320|   -7.631534|    0.824065|    0.012158|
|         505|   -4.446617|   -7.639408|    0.824067|    0.012158|
|         506|   -4.499881|   -7.645864|    0.824070|    0.012157|
|         507|   -4.569362|   -7.651621|    0.824072|    0.012157|
|         508|   -4.655527|   -7.656869|    0.824074|    0.012157|
|         509|   -4.746186|   -7.661690|    0.824077|    0.012157|
|         510|   -4.825557|   -7.666099|    0.824079|    0.012157|
|         511|   -4.885315|   -7.670043|    0.824081|    0.012157|
|         512|   -4.926321|   -7.673475|    0.824083|    0.012157|
|         513|   -4.951436|   -7.676426|    0.824086|    0.012157|
|         514|   -4.963773|   -7.678978|    0.824088|    0.012157|
|         515|   -4.969038|   -7.681187|    0.824090|    0.012157|
|         516|   -4.974218|   -7.683053|    0.824092|    0.012157|
|         517|   -4.984233|   -7.684542|    0.824094|    0.012157|
|         518|   -5.000459|   -7.685644|    0.824095|    0.012156|
|         519|   -5.021280|   -7.686393|    0.824097|    0.012156|
|         520|   -5.043636|   -7.686852|    0.824098|    0.012156|
|         521|   -5.064901|   -7.687089|    0.824100|    0.012156|
|         522|   -5.084224|   -7.687152|    0.824101|    0.012156|
|         523|   -5.102453|   -7.687078|    0.824102|    0.012156|
|         524|   -5.120965|   -7.686892|    0.824103|    0.012156|
|         525|   -5.140525|   -7.686626|    0.824104|    0.012156|
|         526|   -5.160888|   -7.686319|    0.824105|    0.012156|
|         527|   -5.181058|   -7.686018|    0.824106|    0.012156|
|         528|   -5.199773|   -7.685781|    0.824106|    0.012156|
|         529|   -5.215936|   -7.685664|    0.824107|    0.012155|
|         530|   -5.228872|   -7.685716|    0.824107|    0.012155|
|         531|   -5.238463|   -7.685979|    0.824107|    0.012155|
|         532|   -5.245197|   -7.686484|    0.824107|    0.012155|
|         533|   -5.250074|   -7.687250|    0.824107|    0.012155|
|         534|   -5.254369|   -7.688283|    0.824107|    0.012155|
|         535|   -5.259320|   -7.689572|    0.824107|    0.012155|
|         536|   -5.265872|   -7.691094|    0.824107|    0.012155|
|         537|   -5.274545|   -7.692821|    0.824106|    0.012155|
|         538|   -5.285391|   -7.694716|    0.824106|    0.012155|
|         539|   -5.298021|   -7.696737|    0.824105|    0.012155|
|         540|   -5.311653|   -7.698846|    0.824104|    0.012155|
|         541|   -5.325229|   -7.701004|    0.824104|    0.012155|
|         542|   -5.337612|   -7.703177|    0.824103|    0.012155|
|         543|   -5.347873|   -7.705335|    0.824102|    0.012155|
|         544|   -5.355573|   -7.707458|    0.824101|    0.012155|
|         545|   -5.360907|   -7.709530|    0.824100|    0.012155|
|         546|   -5.364611|   -7.711543|    0.824099|    0.012155|
|         547|   -5.367705|   -7.713490|    0.824098|    0.012155|
|         548|   -5.371185|   -7.715366|    0.824097|    0.012155|
|         549|   -5.375803|   -7.717171|    0.824096|    0.012155|
|         550|   -5.381963|   -7.718901|    0.824094|    0.012155|
|         551|   -5.389721|   -7.720556|    0.824093|    0.012155|
|         552|   -5.398845|   -7.722130|    0.824092|    0.012155|
|         553|   -5.408911|   -7.723624|    0.824090|    0.012155|
|         554|   -5.419422|   -7.725026|    0.824089|    0.012155|
|         555|   -5.429913|   -7.726327|    0.824087|    0.012156|
|         556|   -5.440051|   -7.727514|    0.824086|    0.012156|
|         557|   -5.449678|   -7.728570|    0.824084|    0.012156|
|         558|   -5.458823|   -7.729480|    0.824082|    0.012156|
|         559|   -5.467652|   -7.730232|    0.824081|    0.012156|
|         560|   -5.476406|   -7.730818|    0.824079|    0.012156|
|         561|   -5.485334|   -7.731236|    0.824077|    0.012157|
|         562|   -5.494642|   -7.731490|    0.824075|    0.012157|
|         563|   -5.504470|   -7.731590|    0.824073|    0.012157|
|         564|   -5.514887|   -7.731558|    0.824071|    0.012157|
|         565|   -5.525903|   -7.731420|    0.824069|    0.012157|
|         566|   -5.537494|   -7.731214|    0.824067|    0.012157|
|         567|   -5.549617|   -7.730982|    0.824065|    0.012158|
|         568|   -5.562232|   -7.730773|    0.824063|    0.012158|
|         569|   -5.575310|   -7.730638|    0.824061|    0.012158|
|         570|   -5.588832|   -7.730630|    0.824059|    0.012158|
|         571|   -5.602787|   -7.730798|    0.824057|    0.012158|
|         572|   -5.617165|   -7.731188|    0.824054|    0.012159|
|         573|   -5.631945|   -7.731836|    0.824052|    0.012159|
|         574|   -5.647090|   -7.732769|    0.824050|    0.012159|
|         575|   -5.662537|   -7.734002|    0.824049|    0.012159|
|         576|   -5.678201|   -7.735536|    0.824047|    0.012159|
|         577|   -5.693971|   -7.737357|    0.824045|    0.012160|
|         578|   -5.709713|   -7.739438|    0.824043|    0.012160|
|         579|   -5.725273|   -7.741737|    0.824042|    0.012160|
|         580|   -5.740484|   -7.744197|    0.824040|    0.012160|
|         581|   -5.755170|   -7.746749|    0.824039|    0.012160|
|         582|   -5.769153|   -7.749316|    0.824038|    0.012161|
|         583|   -5.782263|   -7.751814|    0.824037|    0.012161|
|         584|   -5.794345|   -7.754156|    0.824036|    0.012161|
|         585|   -5.805269|   -7.756259|    0.824035|    0.012161|
|         586|   -5.814938|   -7.758045|    0.824035|    0.012161|
|         587|   -5.823296|   -7.759452|    0.824034|    0.012161|
|         588|   -5.830332|   -7.760433|    0.824034|    0.012162|
|         589|   -5.836080|   -7.760962|    0.824034|    0.012162|
|         590|   -5.840616|   -7.761036|    0.824034|    0.012162|
|         591|   -5.844049|   -7.760676|    0.824034|    0.012162|
|         592|   -5.846517|   -7.759923|    0.824034|    0.012162|
|         593|   -5.848171|   -7.758838|    0.824034|    0.012162|
|         594|   -5.849167|   -7.757499|    0.824035|    0.012162|
|         595|   -5.849663|   -7.755990|    0.824035|    0.012162|
|         596|   -5.849804|   -7.754404|    0.824036|    0.012162|
|         597|   -5.849724|   -7.752830|    0.824037|    0.012162|
|         598|   -5.849540|   -7.751354|    0.824038|    0.012163|
|         599|   -5.849354|   -7.750053|    0.824039|    0.012163|
|         600|   -5.849251|   -7.748992|    0.824040|    0.012163|
|         601|   -5.849301|   -7.748221|    0.824041|    0.012160|
+-----------------------------------------------------------------------+
|Fixed CL Mode                           |Value                         |
+-----------------------------------------------------------------------+
|Current CL                              |0.824041                      |
|Target CL                               |0.824                         |
|Previous AOA                            |2.7822                        |
|Changed AoA by                          |-0.00020016                   |
+-----------------------------------------------------------------------+
+----------------------------------------------------------------+
|  Inner_Iter|    rms[Rho]|     rms[nu]|          CL|          CD|
+----------------------------------------------------------------+
|         602|   -3.891969|   -7.686006|    0.824042|    0.012160|
|         603|   -4.275340|   -7.714768|    0.824044|    0.012160|
|         604|   -4.515768|   -7.724095|    0.824045|    0.012160|
|         605|   -4.592496|   -7.729709|    0.824046|    0.012160|
|         606|   -4.645501|   -7.734190|    0.824048|    0.012160|
|         607|   -4.714749|   -7.738117|    0.824049|    0.012160|
|         608|   -4.800649|   -7.741646|    0.824051|    0.012160|
|         609|   -4.891120|   -7.744847|    0.824052|    0.012160|
|         610|   -4.970600|   -7.747735|    0.824054|    0.012160|
|         611|   -5.030862|   -7.750268|    0.824055|    0.012160|
|         612|   -5.072625|   -7.752408|    0.824056|    0.012160|
|         613|   -5.098522|   -7.754171|    0.824058|    0.012160|
|         614|   -5.111474|   -7.755609|    0.824059|    0.012160|
|         615|   -5.117110|   -7.756756|    0.824060|    0.012160|
|         616|   -5.122459|   -7.757598|    0.824062|    0.012160|
|         617|   -5.132519|   -7.758111|    0.824063|    0.012160|
|         618|   -5.148730|   -7.758287|    0.824064|    0.012160|
|         619|   -5.169515|   -7.758153|    0.824065|    0.012160|
|         620|   -5.191835|   -7.757759|    0.824066|    0.012160|
|         621|   -5.213077|   -7.757165|    0.824067|    0.012159|
|         622|   -5.232389|   -7.756417|    0.824068|    0.012159|
|         623|   -5.250612|   -7.755553|    0.824069|    0.012159|
|         624|   -5.269101|   -7.754607|    0.824069|    0.012159|
|         625|   -5.288599|   -7.753615|    0.824070|    0.012159|
|         626|   -5.308838|   -7.752622|    0.824070|    0.012159|
|         627|   -5.328804|   -7.751674|    0.824071|    0.012159|
|         628|   -5.347236|   -7.750828|    0.824071|    0.012159|
|         629|   -5.363054|   -7.750134|    0.824071|    0.012159|
|         630|   -5.375621|   -7.749636|    0.824072|    0.012159|
|         631|   -5.384863|   -7.749374|    0.824072|    0.012159|
|         632|   -5.391298|   -7.749373|    0.824072|    0.012158|
|         633|   -5.395940|   -7.749654|    0.824072|    0.012158|
|         634|   -5.400057|   -7.750221|    0.824072|    0.012158|
|         635|   -5.404867|   -7.751066|    0.824071|    0.012158|
|         636|   -5.411290|   -7.752171|    0.824071|    0.012158|
|         637|   -5.419821|   -7.753513|    0.824071|    0.012158|
|         638|   -5.430494|   -7.755062|    0.824071|    0.012158|
|         639|   -5.442908|   -7.756782|    0.824070|    0.012158|
|         640|   -5.456277|   -7.758639|    0.824070|    0.012157|
|         641|   -5.469550|   -7.760598|    0.824069|    0.012157|
|         642|   -5.481607|   -7.762628|    0.824069|    0.012157|
|         643|   -5.491542|   -7.764699|    0.824068|    0.012157|
|         644|   -5.498939|   -7.766792|    0.824068|    0.012157|
|         645|   -5.504000|   -7.768887|    0.824067|    0.012157|
|         646|   -5.507462|   -7.770971|    0.824067|    0.012157|
|         647|   -5.510330|   -7.773034|    0.824066|    0.012157|
|         648|   -5.513581|   -7.775070|    0.824065|    0.012157|
|         649|   -5.517950|   -7.777077|    0.824065|    0.012157|
|         650|   -5.523829|   -7.779050|    0.824064|    0.012157|
|         651|   -5.531270|   -7.780988|    0.824063|    0.012157|
|         652|   -5.540043|   -7.782892|    0.824062|    0.012156|
|         653|   -5.549735|   -7.784764|    0.824062|    0.012156|
|         654|   -5.559863|   -7.786600|    0.824061|    0.012156|
|         655|   -5.569979|   -7.788396|    0.824060|    0.012156|
|         656|   -5.579765|   -7.790147|    0.824059|    0.012156|
|         657|   -5.589076|   -7.791849|    0.824058|    0.012156|
|         658|   -5.597942|   -7.793498|    0.824057|    0.012156|
|         659|   -5.606528|   -7.795091|    0.824056|    0.012156|
|         660|   -5.615068|   -7.796627|    0.824055|    0.012156|
|         661|   -5.623802|   -7.798106|    0.824054|    0.012156|
|         662|   -5.632932|   -7.799534|    0.824053|    0.012156|
|         663|   -5.642591|   -7.800921|    0.824052|    0.012156|
|         664|   -5.652850|   -7.802281|    0.824050|    0.012157|
|         665|   -5.663721|   -7.803635|    0.824049|    0.012157|
|         666|   -5.675185|   -7.805007|    0.824048|    0.012157|
|         667|   -5.687209|   -7.806426|    0.824047|    0.012157|
|         668|   -5.699763|   -7.807923|    0.824045|    0.012157|
|         669|   -5.712829|   -7.809532|    0.824044|    0.012157|
|         670|   -5.726400|   -7.811286|    0.824043|    0.012157|
|         671|   -5.740482|   -7.813216|    0.824042|    0.012157|
|         672|   -5.755080|   -7.815351|    0.824040|    0.012157|
|         673|   -5.770192|   -7.817710|    0.824039|    0.012157|
|         674|   -5.785803|   -7.820305|    0.824038|    0.012157|
|         675|   -5.801875|   -7.823139|    0.824037|    0.012157|
|         676|   -5.818351|   -7.826202|    0.824036|    0.012158|
|         677|   -5.835147|   -7.829474|    0.824035|    0.012158|
|         678|   -5.852156|   -7.832921|    0.824034|    0.012158|
|         679|   -5.869252|   -7.836498|    0.824033|    0.012158|
|         680|   -5.886286|   -7.840149|    0.824032|    0.012158|
|         681|   -5.903095|   -7.843809|    0.824032|    0.012158|
|         682|   -5.919500|   -7.847406|    0.824031|    0.012158|
|         683|   -5.935317|   -7.850864|    0.824031|    0.012158|
|         684|   -5.950356|   -7.854106|    0.824030|    0.012159|
|         685|   -5.964436|   -7.857061|    0.824030|    0.012159|
|         686|   -5.977391|   -7.859665|    0.824030|    0.012159|
|         687|   -5.989081|   -7.861869|    0.824030|    0.012159|
|         688|   -5.999403|   -7.863638|    0.824030|    0.012159|
|         689|   -6.008300|   -7.864957|    0.824030|    0.012159|
|         690|   -6.015761|   -7.865834|    0.824030|    0.012159|
|         691|   -6.021825|   -7.866294|    0.824030|    0.012160|
|         692|   -6.026573|   -7.866384|    0.824031|    0.012160|
|         693|   -6.030124|   -7.866166|    0.824031|    0.012160|
|         694|   -6.032621|   -7.865714|    0.824032|    0.012160|
|         695|   -6.034222|   -7.865111|    0.824032|    0.012160|
|         696|   -6.035092|   -7.864443|    0.824033|    0.012160|
|         697|   -6.035390|   -7.863794|    0.824034|    0.012160|
|         698|   -6.035270|   -7.863245|    0.824035|    0.012161|
|         699|   -6.034871|   -7.862869|    0.824035|    0.012161|
|         700|   -6.034316|   -7.862725|    0.824036|    0.012161|
|         701|   -6.033715|   -7.862862|    0.824037|    0.012158|
+-----------------------------------------------------------------------+
|Fixed CL Mode                           |Value                         |
+-----------------------------------------------------------------------+
|Current CL                              |0.824037                      |
|Target CL                               |0.824                         |
|Previous AOA                            |2.782                         |
|Changed AoA by                          |-0.000181725                  |
+-----------------------------------------------------------------------+
+----------------------------------------------------------------+
|  Inner_Iter|    rms[Rho]|     rms[nu]|          CL|          CD|
+----------------------------------------------------------------+
|         702|   -3.933957|   -7.781116|    0.824038|    0.012158|
|         703|   -4.317754|   -7.819284|    0.824039|    0.012158|
|         704|   -4.559437|   -7.832403|    0.824040|    0.012159|
|         705|   -4.636823|   -7.840527|    0.824042|    0.012159|
|         706|   -4.690046|   -7.847067|    0.824043|    0.012159|
|         707|   -4.759528|   -7.852805|    0.824044|    0.012159|
|         708|   -4.845763|   -7.857964|    0.824045|    0.012159|
|         709|   -4.936537|   -7.862651|    0.824046|    0.012159|
|         710|   -5.016001|   -7.866907|    0.824047|    0.012159|
|         711|   -5.075756|   -7.870700|    0.824048|    0.012159|
|         712|   -5.116652|   -7.874006|    0.824049|    0.012159|
|         713|   -5.141591|   -7.876881|    0.824050|    0.012159|
|         714|   -5.153749|   -7.879433|    0.824051|    0.012159|
|         715|   -5.158886|   -7.881736|    0.824052|    0.012159|
|         716|   -5.164011|   -7.883796|    0.824053|    0.012159|
|         717|   -5.174037|   -7.885583|    0.824054|    0.012159|
|         718|   -5.190322|   -7.887085|    0.824054|    0.012159|
|         719|   -5.211221|   -7.888329|    0.824055|    0.012160|
|         720|   -5.233635|   -7.889369|    0.824056|    0.012160|
|         721|   -5.254895|   -7.890262|    0.824056|    0.012160|
|         722|   -5.274120|   -7.891044|    0.824057|    0.012160|
|         723|   -5.292154|   -7.891733|    0.824057|    0.012160|
|         724|   -5.310385|   -7.892338|    0.824058|    0.012160|
|         725|   -5.329605|   -7.892872|    0.824058|    0.012159|
|         726|   -5.349608|   -7.893360|    0.824058|    0.012159|
|         727|   -5.369442|   -7.893834|    0.824058|    0.012159|
|         728|   -5.387894|   -7.894347|    0.824059|    0.012159|
|         729|   -5.403905|   -7.894945|    0.824059|    0.012159|
|         730|   -5.416817|   -7.895675|    0.824059|    0.012159|
|         731|   -5.426500|   -7.896576|    0.824059|    0.012159|
|         732|   -5.433408|   -7.897677|    0.824058|    0.012159|
|         733|   -5.438503|   -7.898999|    0.824058|    0.012159|
|         734|   -5.443026|   -7.900551|    0.824058|    0.012159|
|         735|   -5.448201|   -7.902321|    0.824058|    0.012159|
|         736|   -5.454977|   -7.904294|    0.824057|    0.012159|
|         737|   -5.463888|   -7.906441|    0.824057|    0.012159|
|         738|   -5.475013|   -7.908727|    0.824057|    0.012159|
|         739|   -5.487989|   -7.911119|    0.824056|    0.012159|
|         740|   -5.502062|   -7.913577|    0.824056|    0.012158|
|         741|   -5.516190|   -7.916068|    0.824055|    0.012158|
|         742|   -5.529234|   -7.918560|    0.824054|    0.012158|
|         743|   -5.540243|   -7.921031|    0.824054|    0.012158|
|         744|   -5.548742|   -7.923461|    0.824053|    0.012158|
|         745|   -5.554885|   -7.925839|    0.824053|    0.012158|
|         746|   -5.559387|   -7.928156|    0.824052|    0.012158|
|         747|   -5.563262|   -7.930410|    0.824051|    0.012158|
|         748|   -5.567520|   -7.932600|    0.824050|    0.012158|
|         749|   -5.572937|   -7.934726|    0.824050|    0.012158|
|         750|   -5.579941|   -7.936787|    0.824049|    0.012158|
|         751|   -5.588607|   -7.938782|    0.824048|    0.012157|
|         752|   -5.598708|   -7.940713|    0.824047|    0.012157|
|         753|   -5.609816|   -7.942578|    0.824046|    0.012157|
|         754|   -5.621412|   -7.944370|    0.824045|    0.012157|
|         755|   -5.633006|   -7.946078|    0.824044|    0.012157|
|         756|   -5.644232|   -7.947694|    0.824043|    0.012157|
|         757|   -5.654907|   -7.949206|    0.824042|    0.012157|
|         758|   -5.665044|   -7.950609|    0.824041|    0.012157|
|         759|   -5.674806|   -7.951900|    0.824040|    0.012157|
|         760|   -5.684441|   -7.953077|    0.824039|    0.012157|
|         761|   -5.694210|   -7.954144|    0.824038|    0.012157|
|         762|   -5.704333|   -7.955112|    0.824036|    0.012157|
|         763|   -5.714960|   -7.955998|    0.824035|    0.012157|
|         764|   -5.726163|   -7.956827|    0.824034|    0.012157|
|         765|   -5.737955|   -7.957630|    0.824033|    0.012157|
|         766|   -5.750306|   -7.958446|    0.824031|    0.012157|
|         767|   -5.763169|   -7.959316|    0.824030|    0.012157|
|         768|   -5.776498|   -7.960285|    0.824029|    0.012157|
|         769|   -5.790258|   -7.961400|    0.824028|    0.012157|
|         770|   -5.804427|   -7.962704|    0.824026|    0.012157|
|         771|   -5.818994|   -7.964235|    0.824025|    0.012157|
|         772|   -5.833948|   -7.966025|    0.824024|    0.012157|
|         773|   -5.849268|   -7.968097|    0.824023|    0.012157|
|         774|   -5.864916|   -7.970461|    0.824022|    0.012157|
|         775|   -5.880828|   -7.973113|    0.824020|    0.012157|
|         776|   -5.896916|   -7.976036|    0.824019|    0.012157|
|         777|   -5.913063|   -7.979195|    0.824018|    0.012157|
|         778|   -5.929129|   -7.982542|    0.824018|    0.012157|
|         779|   -5.944956|   -7.986012|    0.824017|    0.012157|
|         780|   -5.960369|   -7.989530|    0.824016|    0.012157|
|         781|   -5.975189|   -7.993011|    0.824015|    0.012157|
|         782|   -5.989235|   -7.996364|    0.824015|    0.012157|
|         783|   -6.002337|   -7.999497|    0.824014|    0.012157|
|         784|   -6.014342|   -8.002322|    0.824014|    0.012157|
|         785|   -6.025123|   -8.004761|    0.824014|    0.012157|
|         786|   -6.034591|   -8.006752|    0.824014|    0.012157|
|         787|   -6.042700|   -8.008253|    0.824014|    0.012158|
|         788|   -6.049448|   -8.009244|    0.824014|    0.012158|
|         789|   -6.054880|   -8.009736|    0.824014|    0.012158|
|         790|   -6.059080|   -8.009759|    0.824014|    0.012158|
|         791|   -6.062168|   -8.009372|    0.824014|    0.012158|
|         792|   -6.064285|   -8.008651|    0.824015|    0.012158|
|         793|   -6.065586|   -8.007687|    0.824015|    0.012158|
|         794|   -6.066230|   -8.006581|    0.824016|    0.012158|
|         795|   -6.066370|   -8.005437|    0.824016|    0.012159|
|         796|   -6.066149|   -8.004359|    0.824017|    0.012159|
|         797|   -6.065697|   -8.003441|    0.824018|    0.012159|
|         798|   -6.065125|   -8.002769|    0.824018|    0.012159|
|         799|   -6.064530|   -8.002415|    0.824019|    0.012159|
|         800|   -6.063991|   -8.002432|    0.824020|    0.012159|
|         801|   -6.063573|   -8.002857|    0.824021|    0.012158|
+-----------------------------------------------------------------------+
|Fixed CL Mode                           |Value                         |
+-----------------------------------------------------------------------+
|Current CL                              |0.824021                      |
|Target CL                               |0.824                         |
|Previous AOA                            |2.78182                       |
|Changed AoA by                          |-0.000100727                  |
+-----------------------------------------------------------------------+
+----------------------------------------------------------------+
|  Inner_Iter|    rms[Rho]|     rms[nu]|          CL|          CD|
+----------------------------------------------------------------+
|         802|   -4.190176|   -7.951438|    0.824022|    0.012158|
|         803|   -4.573290|   -7.977139|    0.824023|    0.012158|
|         804|   -4.812948|   -7.986380|    0.824024|    0.012158|
|         805|   -4.889226|   -7.992607|    0.824025|    0.012158|
|         806|   -4.942022|   -7.997967|    0.824026|    0.012158|
|         807|   -5.011025|   -8.002907|    0.824027|    0.012159|
|         808|   -5.096569|   -8.007518|    0.824028|    0.012159|
|         809|   -5.186636|   -8.011811|    0.824029|    0.012159|
|         810|   -5.265858|   -8.015753|    0.824030|    0.012159|
|         811|   -5.326164|   -8.019264|    0.824031|    0.012159|
|         812|   -5.368241|   -8.022273|    0.824032|    0.012159|
|         813|   -5.394574|   -8.024762|    0.824033|    0.012159|
|         814|   -5.407924|   -8.026757|    0.824033|    0.012159|
|         815|   -5.413810|   -8.028272|    0.824034|    0.012159|
|         816|   -5.419227|   -8.029301|    0.824035|    0.012160|
|         817|   -5.429195|   -8.029828|    0.824036|    0.012160|
|         818|   -5.445196|   -8.029867|    0.824036|    0.012160|
|         819|   -5.465701|   -8.029467|    0.824037|    0.012160|
|         820|   -5.487727|   -8.028708|    0.824038|    0.012160|
|         821|   -5.508711|   -8.027677|    0.824038|    0.012160|
|         822|   -5.527816|   -8.026455|    0.824039|    0.012160|
|         823|   -5.545859|   -8.025113|    0.824039|    0.012160|
|         824|   -5.564142|   -8.023715|    0.824039|    0.012160|
|         825|   -5.583347|   -8.022329|    0.824040|    0.012160|
|         826|   -5.603158|   -8.021020|    0.824040|    0.012160|
|         827|   -5.622533|   -8.019860|    0.824040|    0.012160|
|         828|   -5.640211|   -8.018908|    0.824040|    0.012160|
|         829|   -5.655149|   -8.018232|    0.824040|    0.012160|
|         830|   -5.666771|   -8.017881|    0.824040|    0.012160|
|         831|   -5.675072|   -8.017897|    0.824040|    0.012160|
|         832|   -5.680625|   -8.018309|    0.824040|    0.012160|
|         833|   -5.684460|   -8.019126|    0.824040|    0.012160|
|         834|   -5.687819|   -8.020346|    0.824039|    0.012160|
|         835|   -5.691864|   -8.021956|    0.824039|    0.012160|
|         836|   -5.697453|   -8.023929|    0.824039|    0.012160|
|         837|   -5.705022|   -8.026229|    0.824038|    0.012160|
|         838|   -5.714563|   -8.028811|    0.824038|    0.012160|
|         839|   -5.725656|   -8.031629|    0.824038|    0.012160|
|         840|   -5.737538|   -8.034632|    0.824037|    0.012160|
|         841|   -5.749222|   -8.037772|    0.824037|    0.012160|
|         842|   -5.759692|   -8.041004|    0.824036|    0.012160|
|         843|   -5.768162|   -8.044284|    0.824036|    0.012160|
|         844|   -5.774310|   -8.047579|    0.824035|    0.012160|
|         845|   -5.778373|   -8.050860|    0.824035|    0.012160|
|         846|   -5.781048|   -8.054105|    0.824034|    0.012159|
|         847|   -5.783254|   -8.057298|    0.824034|    0.012159|
|         848|   -5.785866|   -8.060429|    0.824033|    0.012159|
|         849|   -5.789531|   -8.063492|    0.824033|    0.012159|
|         850|   -5.794587|   -8.066486|    0.824032|    0.012159|
|         851|   -5.801063|   -8.069411|    0.824031|    0.012159|
|         852|   -5.808741|   -8.072273|    0.824031|    0.012159|
|         853|   -5.817247|   -8.075071|    0.824030|    0.012159|
|         854|   -5.826153|   -8.077801|    0.824030|    0.012159|
|         855|   -5.835072|   -8.080460|    0.824029|    0.012159|
|         856|   -5.843734|   -8.083041|    0.824028|    0.012159|
|         857|   -5.852023|   -8.085534|    0.824028|    0.012159|
|         858|   -5.859973|   -8.087931|    0.824027|    0.012159|
|         859|   -5.867725|   -8.090217|    0.824027|    0.012159|
|         860|   -5.875480|   -8.092381|    0.824026|    0.012158|
|         861|   -5.883434|   -8.094412|    0.824025|    0.012158|
|         862|   -5.891749|   -8.096300|    0.824025|    0.012158|
|         863|   -5.900527|   -8.098039|    0.824024|    0.012158|
|         864|   -5.909813|   -8.099631|    0.824023|    0.012158|
|         865|   -5.919603|   -8.101082|    0.824023|    0.012158|
|         866|   -5.929863|   -8.102408|    0.824022|    0.012158|
|         867|   -5.940549|   -8.103629|    0.824022|    0.012158|
|         868|   -5.951613|   -8.104776|    0.824021|    0.012158|
|         869|   -5.963019|   -8.105881|    0.824020|    0.012158|
|         870|   -5.974737|   -8.106983|    0.824020|    0.012158|
|         871|   -5.986740|   -8.108122|    0.824019|    0.012158|
|         872|   -5.999001|   -8.109338|    0.824018|    0.012158|
|         873|   -6.011479|   -8.110667|    0.824018|    0.012158|
|         874|   -6.024122|   -8.112140|    0.824017|    0.012158|
|         875|   -6.036857|   -8.113782|    0.824017|    0.012158|
|         876|   -6.049589|   -8.115607|    0.824016|    0.012158|
|         877|   -6.062208|   -8.117618|    0.824016|    0.012158|
|         878|   -6.074587|   -8.119808|    0.824015|    0.012158|
|         879|   -6.086588|   -8.122157|    0.824015|    0.012158|
|         880|   -6.098071|   -8.124631|    0.824015|    0.012158|
|         881|   -6.108893|   -8.127190|    0.824014|    0.012158|
|         882|   -6.118922|   -8.129779|    0.824014|    0.012158|
|         883|   -6.128036|   -8.132340|    0.824014|    0.012158|
|         884|   -6.136137|   -8.134809|    0.824014|    0.012158|
|         885|   -6.143148|   -8.137124|    0.824014|    0.012158|
|         886|   -6.149026|   -8.139225|    0.824014|    0.012158|
|         887|   -6.153757|   -8.141058|    0.824014|    0.012158|
|         888|   -6.157360|   -8.142583|    0.824014|    0.012158|
|         889|   -6.159887|   -8.143775|    0.824014|    0.012158|
|         890|   -6.161413|   -8.144622|    0.824014|    0.012158|
|         891|   -6.162038|   -8.145134|    0.824015|    0.012158|
|         892|   -6.161873|   -8.145336|    0.824015|    0.012159|
|         893|   -6.161041|   -8.145272|    0.824015|    0.012159|
|         894|   -6.159665|   -8.144997|    0.824016|    0.012159|
|         895|   -6.157868|   -8.144579|    0.824016|    0.012159|
|         896|   -6.155764|   -8.144091|    0.824016|    0.012159|
|         897|   -6.153461|   -8.143608|    0.824017|    0.012159|
|         898|   -6.151058|   -8.143205|    0.824017|    0.012159|
|         899|   -6.148641|   -8.142951|    0.824018|    0.012159|
|         900|   -6.146287|   -8.142907|    0.824018|    0.012159|
|         901|   -6.144063|   -8.143121|    0.824019|    0.012158|
+-----------------------------------------------------------------------+
|Fixed CL Mode                           |Value                         |
+-----------------------------------------------------------------------+
|Current CL                              |0.824019                      |
|Target CL                               |0.824                         |
|Previous AOA                            |2.78171                       |
[...]
|        5298|   -6.043542|   -7.921310|    0.824236|    0.012164|
|        5299|   -6.050104|   -7.925450|    0.824236|    0.012164|
|        5300|   -6.056326|   -7.929605|    0.824236|    0.012164|
|        5301|   -6.062173|   -7.933785|    0.824236|    0.012164|
|        5302|   -6.067616|   -7.938001|    0.824237|    0.012164|
|        5303|   -6.072638|   -7.942258|    0.824237|    0.012164|
|        5304|   -6.077231|   -7.946562|    0.824237|    0.012164|
|        5305|   -6.081397|   -7.950915|    0.824237|    0.012164|
|        5306|   -6.085148|   -7.955318|    0.824237|    0.012164|
|        5307|   -6.088508|   -7.959772|    0.824237|    0.012164|
|        5308|   -6.091506|   -7.964276|    0.824237|    0.012164|
|        5309|   -6.094179|   -7.968830|    0.824237|    0.012164|
|        5310|   -6.096572|   -7.973435|    0.824237|    0.012164|
|        5311|   -6.098731|   -7.978089|    0.824237|    0.012164|
|        5312|   -6.100704|   -7.982796|    0.824238|    0.012164|
|        5313|   -6.102543|   -7.987557|    0.824238|    0.012164|
|        5314|   -6.104297|   -7.992375|    0.824238|    0.012164|
|        5315|   -6.106014|   -7.997254|    0.824238|    0.012164|
|        5316|   -6.107739|   -8.002199|    0.824238|    0.012164|
|        5317|   -6.109514|   -8.007216|    0.824238|    0.012164|
|        5318|   -6.111375|   -8.012310|    0.824238|    0.012164|
|        5319|   -6.113355|   -8.017487|    0.824238|    0.012164|
|        5320|   -6.115479|   -8.022753|    0.824238|    0.012164|
|        5321|   -6.117767|   -8.028114|    0.824239|    0.012164|
|        5322|   -6.120235|   -8.033572|    0.824239|    0.012164|
|        5323|   -6.122889|   -8.039133|    0.824239|    0.012164|
|        5324|   -6.125731|   -8.044794|    0.824239|    0.012164|
|        5325|   -6.128756|   -8.050557|    0.824239|    0.012164|
|        5326|   -6.131954|   -8.056420|    0.824239|    0.012164|
|        5327|   -6.135308|   -8.062379|    0.824239|    0.012164|
|        5328|   -6.138795|   -8.068431|    0.824240|    0.012165|
|        5329|   -6.142388|   -8.074569|    0.824240|    0.012165|
|        5330|   -6.146056|   -8.080786|    0.824240|    0.012165|
|        5331|   -6.149763|   -8.087075|    0.824240|    0.012165|
|        5332|   -6.153471|   -8.093425|    0.824240|    0.012165|
|        5333|   -6.157141|   -8.099828|    0.824240|    0.012165|
|        5334|   -6.160735|   -8.106275|    0.824240|    0.012165|
|        5335|   -6.164211|   -8.112755|    0.824241|    0.012165|
|        5336|   -6.167534|   -8.119257|    0.824241|    0.012165|
|        5337|   -6.170672|   -8.125769|    0.824241|    0.012165|
|        5338|   -6.173597|   -8.132279|    0.824241|    0.012165|
|        5339|   -6.176289|   -8.138777|    0.824241|    0.012166|
|        5340|   -6.178733|   -8.145254|    0.824241|    0.012166|
|        5341|   -6.180923|   -8.151702|    0.824241|    0.012166|
|        5342|   -6.182860|   -8.158112|    0.824241|    0.012166|
|        5343|   -6.184554|   -8.164478|    0.824241|    0.012166|
|        5344|   -6.186023|   -8.170794|    0.824242|    0.012166|
|        5345|   -6.187289|   -8.177057|    0.824242|    0.012166|
|        5346|   -6.188385|   -8.183261|    0.824242|    0.012166|
|        5347|   -6.189345|   -8.189407|    0.824242|    0.012166|
|        5348|   -6.190208|   -8.195493|    0.824242|    0.012166|
|        5349|   -6.191017|   -8.201519|    0.824242|    0.012166|
|        5350|   -6.191816|   -8.207487|    0.824242|    0.012166|
|        5351|   -6.192647|   -8.213398|    0.824242|    0.012166|
|        5352|   -6.193554|   -8.219257|    0.824242|    0.012166|
|        5353|   -6.194577|   -8.225069|    0.824242|    0.012166|
|        5354|   -6.195756|   -8.230838|    0.824242|    0.012166|
|        5355|   -6.197126|   -8.236565|    0.824242|    0.012166|
|        5356|   -6.198719|   -8.242253|    0.824242|    0.012166|
|        5357|   -6.200564|   -8.247902|    0.824242|    0.012166|
|        5358|   -6.202684|   -8.253514|    0.824242|    0.012166|
|        5359|   -6.205098|   -8.259088|    0.824242|    0.012166|
|        5360|   -6.207821|   -8.264627|    0.824242|    0.012166|
|        5361|   -6.210861|   -8.270130|    0.824242|    0.012166|
|        5362|   -6.214223|   -8.275599|    0.824242|    0.012166|
|        5363|   -6.217908|   -8.281034|    0.824242|    0.012166|
|        5364|   -6.221910|   -8.286436|    0.824242|    0.012166|
|        5365|   -6.226218|   -8.291804|    0.824242|    0.012166|
|        5366|   -6.230821|   -8.297138|    0.824242|    0.012166|
|        5367|   -6.235697|   -8.302439|    0.824242|    0.012166|
|        5368|   -6.240820|   -8.307704|    0.824242|    0.012166|
|        5369|   -6.246162|   -8.312934|    0.824242|    0.012166|
|        5370|   -6.251690|   -8.318127|    0.824242|    0.012166|
|        5371|   -6.257365|   -8.323283|    0.824242|    0.012166|
|        5372|   -6.263147|   -8.328401|    0.824242|    0.012166|
|        5373|   -6.268992|   -8.333483|    0.824242|    0.012166|
|        5374|   -6.274853|   -8.338528|    0.824241|    0.012166|
|        5375|   -6.280683|   -8.343542|    0.824241|    0.012166|
|        5376|   -6.286435|   -8.348527|    0.824241|    0.012166|
|        5377|   -6.292059|   -8.353488|    0.824241|    0.012166|
|        5378|   -6.297510|   -8.358430|    0.824241|    0.012166|
|        5379|   -6.302742|   -8.363360|    0.824241|    0.012166|
|        5380|   -6.307716|   -8.368282|    0.824241|    0.012166|
|        5381|   -6.312396|   -8.373203|    0.824241|    0.012166|
|        5382|   -6.316752|   -8.378130|    0.824241|    0.012166|
|        5383|   -6.320760|   -8.383068|    0.824241|    0.012165|
|        5384|   -6.324404|   -8.388022|    0.824241|    0.012165|
|        5385|   -6.327673|   -8.393000|    0.824241|    0.012165|
|        5386|   -6.330567|   -8.398004|    0.824241|    0.012165|
|        5387|   -6.333087|   -8.403039|    0.824241|    0.012165|
|        5388|   -6.335246|   -8.408107|    0.824241|    0.012165|
|        5389|   -6.337057|   -8.413207|    0.824241|    0.012165|
|        5390|   -6.338542|   -8.418337|    0.824241|    0.012165|
|        5391|   -6.339721|   -8.423492|    0.824241|    0.012165|
|        5392|   -6.340621|   -8.428664|    0.824241|    0.012165|
|        5393|   -6.341268|   -8.433844|    0.824241|    0.012164|
|        5394|   -6.341687|   -8.439017|    0.824241|    0.012164|
|        5395|   -6.341905|   -8.444164|    0.824242|    0.012164|
|        5396|   -6.341947|   -8.449266|    0.824242|    0.012164|
|        5397|   -6.341835|   -8.454300|    0.824242|    0.012164|
|        5398|   -6.341590|   -8.459243|    0.824242|    0.012164|
|        5399|   -6.341231|   -8.464070|    0.824242|    0.012164|
|        5400|   -6.340773|   -8.468757|    0.824242|    0.012164|
|        5401|   -6.340232|   -8.473277|    0.824242|    0.012164|
|        5402|   -6.339617|   -8.477605|    0.824242|    0.012164|
|        5403|   -6.338940|   -8.481716|    0.824242|    0.012163|
|        5404|   -6.338208|   -8.485590|    0.824243|    0.012163|
|        5405|   -6.337427|   -8.489208|    0.824243|    0.012163|
|        5406|   -6.336603|   -8.492553|    0.824243|    0.012163|
|        5407|   -6.335740|   -8.495616|    0.824243|    0.012163|
|        5408|   -6.334842|   -8.498388|    0.824243|    0.012163|
|        5409|   -6.333912|   -8.500868|    0.824243|    0.012163|
|        5410|   -6.332954|   -8.503055|    0.824243|    0.012163|
|        5411|   -6.331970|   -8.504957|    0.824244|    0.012163|
|        5412|   -6.330963|   -8.506584|    0.824244|    0.012163|
|        5413|   -6.329937|   -8.507948|    0.824244|    0.012163|
|        5414|   -6.328896|   -8.509065|    0.824244|    0.012163|
|        5415|   -6.327845|   -8.509955|    0.824244|    0.012163|
|        5416|   -6.326787|   -8.510636|    0.824244|    0.012162|
|        5417|   -6.325728|   -8.511130|    0.824244|    0.012162|
|        5418|   -6.324675|   -8.511457|    0.824245|    0.012162|
|        5419|   -6.323635|   -8.511638|    0.824245|    0.012162|
|        5420|   -6.322613|   -8.511693|    0.824245|    0.012162|
|        5421|   -6.321619|   -8.511640|    0.824245|    0.012162|
|        5422|   -6.320661|   -8.511497|    0.824245|    0.012162|
|        5423|   -6.319750|   -8.511279|    0.824245|    0.012162|
|        5424|   -6.318894|   -8.511000|    0.824245|    0.012162|
|        5425|   -6.318106|   -8.510672|    0.824245|    0.012162|
|        5426|   -6.317397|   -8.510308|    0.824245|    0.012162|
|        5427|   -6.316780|   -8.509916|    0.824245|    0.012162|
|        5428|   -6.316268|   -8.509506|    0.824245|    0.012162|
|        5429|   -6.315875|   -8.509087|    0.824245|    0.012162|
|        5430|   -6.315615|   -8.508664|    0.824245|    0.012162|
|        5431|   -6.315502|   -8.508247|    0.824246|    0.012162|
|        5432|   -6.315552|   -8.507842|    0.824246|    0.012162|
|        5433|   -6.315778|   -8.507457|    0.824246|    0.012162|
|        5434|   -6.316196|   -8.507099|    0.824246|    0.012162|
|        5435|   -6.316820|   -8.506776|    0.824246|    0.012162|
|        5436|   -6.317664|   -8.506498|    0.824246|    0.012162|
|        5437|   -6.318740|   -8.506272|    0.824246|    0.012162|
|        5438|   -6.320060|   -8.506107|    0.824246|    0.012162|
|        5439|   -6.321636|   -8.506012|    0.824246|    0.012162|
|        5440|   -6.323475|   -8.505996|    0.824246|    0.012162|
|        5441|   -6.325585|   -8.506068|    0.824246|    0.012162|
|        5442|   -6.327973|   -8.506237|    0.824246|    0.012162|
|        5443|   -6.330640|   -8.506512|    0.824246|    0.012162|
|        5444|   -6.333587|   -8.506901|    0.824245|    0.012162|
|        5445|   -6.336812|   -8.507411|    0.824245|    0.012162|
|        5446|   -6.340311|   -8.508050|    0.824245|    0.012163|
|        5447|   -6.344074|   -8.508822|    0.824245|    0.012163|
|        5448|   -6.348090|   -8.509735|    0.824245|    0.012163|
|        5449|   -6.352345|   -8.510791|    0.824245|    0.012163|
|        5450|   -6.356819|   -8.511995|    0.824245|    0.012163|
|        5451|   -6.361490|   -8.513348|    0.824245|    0.012163|
|        5452|   -6.366332|   -8.514853|    0.824245|    0.012163|
|        5453|   -6.371314|   -8.516509|    0.824245|    0.012163|
|        5454|   -6.376403|   -8.518318|    0.824245|    0.012163|
|        5455|   -6.381562|   -8.520278|    0.824245|    0.012163|
|        5456|   -6.386749|   -8.522387|    0.824245|    0.012163|
|        5457|   -6.391923|   -8.524645|    0.824244|    0.012163|
|        5458|   -6.397037|   -8.527048|    0.824244|    0.012163|
|        5459|   -6.402045|   -8.529595|    0.824244|    0.012163|
|        5460|   -6.406900|   -8.532281|    0.824244|    0.012164|
|        5461|   -6.411554|   -8.535103|    0.824244|    0.012164|
|        5462|   -6.415961|   -8.538057|    0.824244|    0.012164|
|        5463|   -6.420080|   -8.541138|    0.824244|    0.012164|
|        5464|   -6.423870|   -8.544341|    0.824243|    0.012164|
|        5465|   -6.427297|   -8.547662|    0.824243|    0.012164|
|        5466|   -6.430333|   -8.551096|    0.824243|    0.012164|
|        5467|   -6.432955|   -8.554636|    0.824243|    0.012164|
|        5468|   -6.435151|   -8.558277|    0.824243|    0.012164|
|        5469|   -6.436913|   -8.562011|    0.824242|    0.012164|
|        5470|   -6.438244|   -8.565832|    0.824242|    0.012164|
|        5471|   -6.439152|   -8.569732|    0.824242|    0.012164|
|        5472|   -6.439654|   -8.573702|    0.824242|    0.012164|
|        5473|   -6.439775|   -8.577734|    0.824242|    0.012164|
|        5474|   -6.439543|   -8.581818|    0.824241|    0.012164|
|        5475|   -6.438993|   -8.585943|    0.824241|    0.012164|
|        5476|   -6.438162|   -8.590097|    0.824241|    0.012164|
|        5477|   -6.437091|   -8.594269|    0.824241|    0.012164|
|        5478|   -6.435821|   -8.598446|    0.824241|    0.012165|
|        5479|   -6.434396|   -8.602614|    0.824240|    0.012165|
|        5480|   -6.432857|   -8.606759|    0.824240|    0.012165|
|        5481|   -6.431246|   -8.610865|    0.824240|    0.012165|
|        5482|   -6.429602|   -8.614918|    0.824240|    0.012165|
|        5483|   -6.427961|   -8.618902|    0.824240|    0.012165|
|        5484|   -6.426360|   -8.622801|    0.824239|    0.012165|
|        5485|   -6.424829|   -8.626601|    0.824239|    0.012165|
|        5486|   -6.423398|   -8.630285|    0.824239|    0.012165|
|        5487|   -6.422092|   -8.633840|    0.824239|    0.012165|
|        5488|   -6.420935|   -8.637252|    0.824239|    0.012165|
|        5489|   -6.419947|   -8.640509|    0.824238|    0.012165|
|        5490|   -6.419146|   -8.643598|    0.824238|    0.012165|
|        5491|   -6.418545|   -8.646510|    0.824238|    0.012165|
|        5492|   -6.418157|   -8.649237|    0.824238|    0.012165|
|        5493|   -6.417993|   -8.651771|    0.824238|    0.012165|
|        5494|   -6.418058|   -8.654108|    0.824238|    0.012165|
|        5495|   -6.418359|   -8.656244|    0.824238|    0.012164|
|        5496|   -6.418900|   -8.658177|    0.824237|    0.012164|
|        5497|   -6.419682|   -8.659907|    0.824237|    0.012164|
|        5498|   -6.420706|   -8.661436|    0.824237|    0.012164|
|        5499|   -6.421972|   -8.662766|    0.824237|    0.012150|
+-----------------------------------------------------------------------+
|Fixed CL Mode (Finite Difference)       |Value                         |
+-----------------------------------------------------------------------+
|Delta CL / Delta AoA                    |0.237224                      |
|Delta CD / Delta CL                     |0.0188323                     |
|Delta CMz / Delta CL                    |0.00299176                    |
+-----------------------------------------------------------------------+
Writing Flow Meta-Data file: flow.meta

----------------------------- Solver Exit -------------------------------

Maximum number of iterations reached (ITER = 5500) before convergence.
+-----------------------------------------------------------------------+
|      Convergence Field     |     Value    |   Criterion  |  Converged |
+-----------------------------------------------------------------------+
|                    rms[Rho]|      -6.42197|         < -12|          No|
+-----------------------------------------------------------------------+
-------------------------------------------------------------------------

--------------------------- Finalizing Solver ---------------------------
Deleted CNumerics container.
Deleted CIntegration container.
Deleted CSolver container.
Deleted CIteration container.
Deleted CInterface container.
Deleted CGeometry container.
Deleted CFreeFormDefBox class.
Deleted CSurfaceMovement class.
Deleted CVolumetricMovement class.
Deleted CConfig container.
Deleted nInst container.
Deleted COutput class.
-------------------------------------------------------------------------

------------------------- Exit Success (SU2_CFD) ------------------------


-------------------------------------------------------------------------
|    ___ _   _ ___                                                      |
|   / __| | | |_  )   Release 8.0.0 "Harrier"                           |
|   \__ \ |_| |/ /                                                      |
|   |___/\___//___|   Suite (Solution Exporting Code)                   |
|                                                                       |
-------------------------------------------------------------------------
| SU2 Project Website: https://su2code.github.io                        |
|                                                                       |
| The SU2 Project is maintained by the SU2 Foundation                   |
| (http://su2foundation.org)                                            |
-------------------------------------------------------------------------
| Copyright 2012-2023, SU2 Contributors                                 |
|                                                                       |
| SU2 is free software; you can redistribute it and/or                  |
| modify it under the terms of the GNU Lesser General Public            |
| License as published by the Free Software Foundation; either          |
| version 2.1 of the License, or (at your option) any later version.    |
|                                                                       |
| SU2 is distributed in the hope that it will be useful,                |
| but WITHOUT ANY WARRANTY; without even the implied warranty of        |
| MERCHANTABILITY or FITNESS FOR A PARTICULAR PURPOSE. See the GNU      |
| Lesser General Public License for more details.                       |
|                                                                       |
| You should have received a copy of the GNU Lesser General Public      |
| License along with SU2. If not, see <http://www.gnu.org/licenses/>.   |
-------------------------------------------------------------------------

----------------- Physical Case Definition ( Zone 0 ) -------------------
Input mesh file name: mesh_RAE2822_turb_deform.su2

-------------------- Output Information ( Zone 0 ) ----------------------
The tabular file format is CSV (.csv).
Flow variables file name: flow.

------------- Config File Boundary Information ( Zone 0 ) ---------------
+-----------------------------------------------------------------------+
|                        Marker Type|                        Marker Name|
+-----------------------------------------------------------------------+
|                          Far-field|                           FARFIELD|
+-----------------------------------------------------------------------+
|                     Heat flux wall|                            AIRFOIL|
+-----------------------------------------------------------------------+
Two dimensional problem.
13937 grid points before partitioning.
22842 volume elements before partitioning.
2 surface markers.
192 boundary elements in index 0 (Marker = AIRFOIL).
40 boundary elements in index 1 (Marker = FARFIELD).
Executing the partitioning functions.
Building the graph adjacency structure.
Calling ParMETIS... graph partitioning complete (831 edge cuts).
Distributing ParMETIS coloring.
Rebalancing vertices.
Rebalancing volume element connectivity.
Rebalancing markers and surface elements.
14875 vertices including ghost points. 
23674 interior elements including halo cells. 
18780 triangles.
4894 quadrilaterals.
Establishing MPI communication patterns.
Identify vertices.
Storing a mapping from global to local point index.

------------------------- Solution Postprocessing -----------------------
Reading and storing the solution from restart_flow.
Volume output fields: COORDINATES, SOLUTION
  Info: Ignoring the following screen output fields:
  RMS_DENSITY, RMS_NU_TILDE, LIFT, DRAG
Screen output fields: INNER_ITER
  Info: Ignoring the following history output groups:
  RMS_RES, AERO_COEFF
History output group(s): ITER
Warning: No (valid) fields chosen for convergence monitoring. Convergence monitoring inactive.
Warning: No (valid) fields chosen for time convergence monitoring. Time convergence monitoring inactive.
|Paraview                           |flow.vtu                           |
|Paraview surface                   |surface_flow.vtu                   |
|CSV file                           |surface_flow.csv                   |

------------------------- Finalize Solver -------------------------
Deleted CGeometry container.
Deleted CSolver class.
Deleted CConfig container.
Deleted COutput class.

Completed in 0.015242 seconds on 6 cores.

------------------------- Exit Success (SU2_SOL) ------------------------

