
-------------------------------------------------------------------------
|    ___ _   _ ___                                                      |
|   / __| | | |_  )   Release 8.0.0 "Harrier"                           |
|   \__ \ |_| |/ /                                                      |
|   |___/\___//___|   Suite (Computational Fluid Dynamics Code)         |
|                                                                       |
-------------------------------------------------------------------------
| SU2 Project Website: https://su2code.github.io                        |
|                                                                       |
| The SU2 Project is maintained by the SU2 Foundation                   |
| (http://su2foundation.org)                                            |
-------------------------------------------------------------------------
| Copyright 2012-2023, SU2 Contributors                                 |
|                                                                       |
| SU2 is free software; you can redistribute it and/or                  |
| modify it under the terms of the GNU Lesser General Public            |
| License as published by the Free Software Foundation; either          |
| version 2.1 of the License, or (at your option) any later version.    |
|                                                                       |
| SU2 is distributed in the hope that it will be useful,                |
| but WITHOUT ANY WARRANTY; without even the implied warranty of        |
| MERCHANTABILITY or FITNESS FOR A PARTICULAR PURPOSE. See the GNU      |
| Lesser General Public License for more details.                       |
|                                                                       |
| You should have received a copy of the GNU Lesser General Public      |
| License along with SU2. If not, see <http://www.gnu.org/licenses/>.   |
-------------------------------------------------------------------------

Parsing config file for zone 0

----------------- Physical Case Definition ( Zone 0 ) -------------------
Compressible RANS equations.
Turbulence model: Spalart-Allmaras-noft2
Hybrid RANS/LES: No Hybrid RANS/LES
Mach number: 0.734.
Angle of attack (AoA): 2.31 deg, and angle of sideslip (AoS): 0 deg.
Reynolds number: 6.5e+06. Reference length 1.
Fixed CL mode, target value: 0.824.
Reading and writing binary SU2 native restart files.
Read flow solution from: solution_flow.dat.
Dimensional simulation.
The reference area is 1 m^2.
The semi-span will be computed using the max y(3D) value.
The reference length is 1 m.
Reference origin for moment evaluation is (0.25, 0, 0).
Surface(s) where the force coefficients are evaluated: AIRFOIL.

Surface(s) plotted in the output file: AIRFOIL.
Surface(s) affected by the design variables: AIRFOIL.
Input mesh file name: mesh_RAE2822_turb_deform.su2

--------------- Space Numerical Integration ( Zone 0 ) ------------------
Jameson-Schmidt-Turkel scheme (2nd order in space) for the flow inviscid terms.
JST viscous coefficients (2nd & 4th): 0.5, 0.02.
The method includes a grid stretching correction (p = 0.3).
Scalar upwind solver for the turbulence model.
First order integration in space.
Average of gradients with correction (viscous flow terms).
Average of gradients with correction (viscous turbulence terms).
Gradient for viscous and source terms: inverse-distance weighted Least-Squares.

--------------- Time Numerical Integration  ( Zone 0 ) ------------------
Local time stepping (steady state simulation).
Euler implicit method for the flow equations.
FGMRES is used for solving the linear system.
Using a ILU(0) preconditioning.
Convergence criteria of the linear solver: 1e-06.
Max number of linear iterations: 10.
No CFL adaptation.
Courant-Friedrichs-Lewy number:       10
Euler implicit time integration for the turbulence model.

------------------ Convergence Criteria  ( Zone 0 ) ---------------------
Maximum number of solver subiterations: 5500.
Begin convergence monitoring at iteration 10.
Residual minimum value: 1e-12.
Cauchy series min. value: 1e-06.
Number of Cauchy elements: 100.
Begin windowed time average at iteration 0.

-------------------- Output Information ( Zone 0 ) ----------------------
File writing frequency: 
+------------------------------------+
|                     File| Frequency|
+------------------------------------+
|                  RESTART|     10000|
|                 PARAVIEW|     10000|
|         SURFACE_PARAVIEW|     10000|
|              SURFACE_CSV|     10000|
+------------------------------------+
Writing the convergence history file every 1 inner iterations.
Writing the screen convergence history every 1 inner iterations.
The tabular file format is CSV (.csv).
Convergence history file name: history_direct.
Forces breakdown file name: forces_breakdown.dat.
Surface file name: surface_flow.
Volume file name: flow.
Restart file name: restart_flow.dat.

------------- Config File Boundary Information ( Zone 0 ) ---------------
+-----------------------------------------------------------------------+
|                        Marker Type|                        Marker Name|
+-----------------------------------------------------------------------+
|                          Far-field|                           FARFIELD|
+-----------------------------------------------------------------------+
|                     Heat flux wall|                            AIRFOIL|
+-----------------------------------------------------------------------+

-------------------- Output Preprocessing ( Zone 0 ) --------------------

WARNING: SURFACE_PRESSURE_DROP can only be computed for at least 2 surfaces (outlet, inlet, ...)

Screen output fields: INNER_ITER, RMS_DENSITY, RMS_NU_TILDE, LIFT, DRAG
History output group(s): ITER, RMS_RES, AERO_COEFF
Convergence field(s): RMS_DENSITY
Warning: No (valid) fields chosen for time convergence monitoring. Time convergence monitoring inactive.
Volume output fields: COORDINATES, SOLUTION, PRIMITIVE

------------------- Geometry Preprocessing ( Zone 0 ) -------------------
Two dimensional problem.
13937 grid points before partitioning.
22842 volume elements before partitioning.
2 surface markers.
192 boundary elements in index 0 (Marker = AIRFOIL).
40 boundary elements in index 1 (Marker = FARFIELD).
Executing the partitioning functions.
Building the graph adjacency structure.
Calling ParMETIS... graph partitioning complete (831 edge cuts).
Distributing ParMETIS coloring.
Rebalancing vertices.
Rebalancing volume element connectivity.
Rebalancing markers and surface elements.
14875 vertices including ghost points. 
23674 interior elements including halo cells. 
18780 triangles.
4894 quadrilaterals.
Establishing MPI communication patterns.
Setting point connectivity.
Renumbering points (Reverse Cuthill McKee Ordering).
Recomputing point connectivity.
Setting element connectivity.
Checking the numerical grid orientation.
All volume elements are correctly orientend.
All surface elements are correctly orientend.
Identifying edges and vertices.
Setting the control volume structure.
Area of the computational grid: 32209.9.
Searching for the closest normal neighbors to the surfaces.
Storing a mapping from global to local point index.
Compute the surface curvature.
Max K: 203.762. Mean K: 8.29344. Standard deviation K: 26.8203.
Checking for periodicity.
Computing mesh quality statistics for the dual control volumes.
+--------------------------------------------------------------+
|           Mesh Quality Metric|        Minimum|        Maximum|
+--------------------------------------------------------------+
|    Orthogonality Angle (deg.)|        74.5138|             90|
|     CV Face Area Aspect Ratio|        1.00101|        3358.96|
|           CV Sub-Volume Ratio|        1.00066|        1219.22|
+--------------------------------------------------------------+
Finding max control volume width.
Communicating number of neighbors.
Wetted area = 2.02142 m.
Area projection in the x-plane = 0.127746 m, y-plane = 0.995873 m.
Max. coordinate in the x-direction = 1 m, y-direction = 0.0616014 m.
Min. coordinate in the x-direction = 0 m, y-direction = -0.0624342 m.
Computing wall distances.

-------------------- Solver Preprocessing ( Zone 0 ) --------------------
WARNING: AoA in the solution file (2.76696 deg.) +
         AoA offset in mesh file (0 deg.) = 2.76696 deg.
WARNING: SU2 will use the dCD/dCL provided in the direct solution file: 0.019551.
WARNING: SU2 will use the dCMz/dCL provided in the direct solution file: 0.00702709.
Viscous flow: Computing pressure using the ideal gas law
based on the free-stream temperature and a density computed
from the Reynolds number.
Force coefficients computed using free-stream values.

-- Models:
+------------------------------------------------------------------------------+
|          Viscosity Model|        Conductivity Model|              Fluid Model|
+------------------------------------------------------------------------------+
|               SUTHERLAND|          CONSTANT_PRANDTL|             STANDARD_AIR|
+------------------------------------------------------------------------------+
-- Fluid properties:
+------------------------------------------------------------------------------+
|                  Name|    Dim. value|    Ref. value|      Unit|Non-dim. value|
+------------------------------------------------------------------------------+
|        Ref. Viscosity|     1.716e-05|             1|   N.s/m^2|     1.716e-05|
|      Sutherland Temp.|        273.15|             1|         K|        273.15|
|     Sutherland Const.|         110.4|             1|         K|         110.4|
+------------------------------------------------------------------------------+
|        Prandtl (Lam.)|             -|             -|         -|          0.71|
|       Prandtl (Turb.)|             -|             -|         -|           0.9|
+------------------------------------------------------------------------------+
|          Gas Constant|       287.058|             1|  N.m/kg.K|       287.058|
|      Spec. Heat Ratio|             -|             -|         -|           1.4|
+------------------------------------------------------------------------------+
-- Initial and free-stream conditions:
+------------------------------------------------------------------------------+
|                  Name|    Dim. value|    Ref. value|      Unit|Non-dim. value|
+------------------------------------------------------------------------------+
|       Static Pressure|         38515|             1|        Pa|         38515|
|               Density|      0.465631|             1|    kg/m^3|      0.465631|
|           Temperature|        288.15|             1|         K|        288.15|
|          Total Energy|        237984|             1|   m^2/s^2|        237984|
|            Velocity-X|       249.487|             1|       m/s|       249.487|
|            Velocity-Y|       12.0577|             1|       m/s|       12.0577|
|    Velocity Magnitude|       249.778|             1|       m/s|       249.778|
+------------------------------------------------------------------------------+
|             Viscosity|    1.7893e-05|             1|   N.s/m^2|    1.7893e-05|
|          Conductivity|             -|             1|   W/m^2.K|             -|
|     Turb. Kin. Energy|       233.959|             1|   m^2/s^2|       233.959|
|     Spec. Dissipation|        608834|             1|       1/s|        608834|
+------------------------------------------------------------------------------+
|           Mach Number|             -|             -|         -|         0.734|
|       Reynolds Number|             -|             -|         -|       6.5e+06|
+------------------------------------------------------------------------------+
Initialize Jacobian structure (Navier-Stokes). MG level: 0.
Initialize Jacobian structure (SA model).

------------------- Numerics Preprocessing ( Zone 0 ) -------------------

----------------- Integration Preprocessing ( Zone 0 ) ------------------

------------------- Iteration Preprocessing ( Zone 0 ) ------------------
Euler/Navier-Stokes/RANS fluid iteration.

------------------------------ Begin Solver -----------------------------

Simulation Run using the Single-zone Driver
WARNING: SU2 was not compiled for an AVX-capable architecture. Performance could be better,
         see https://su2code.github.io/docs_v7/Build-SU2-Linux-MacOS/#compiler-optimizations
+----------------------------------------------------------------+
|  Inner_Iter|    rms[Rho]|     rms[nu]|          CL|          CD|
+----------------------------------------------------------------+
|           0|   -5.799916|   -7.120180|    0.823992|    0.011986|
|           1|   -5.861858|   -7.236269|    0.823987|    0.011983|
|           2|   -5.929841|   -7.368153|    0.823986|    0.011981|
|           3|   -5.978656|   -7.512698|    0.823987|    0.011981|
|           4|   -6.006222|   -7.663139|    0.823988|    0.011981|
|           5|   -6.019071|   -7.784098|    0.823989|    0.011981|
|           6|   -6.023400|   -7.820687|    0.823989|    0.011981|
|           7|   -6.023671|   -7.794911|    0.823989|    0.011981|
|           8|   -6.022681|   -7.764107|    0.823989|    0.011981|
|           9|   -6.021295|   -7.746771|    0.823988|    0.011981|
|          10|   -6.018809|   -7.738393|    0.823987|    0.011980|
|          11|   -6.014026|   -7.729458|    0.823987|    0.011980|
|          12|   -6.006272|   -7.714109|    0.823986|    0.011980|
|          13|   -5.995806|   -7.693017|    0.823985|    0.011980|
|          14|   -5.983598|   -7.670643|    0.823985|    0.011979|
|          15|   -5.970857|   -7.651302|    0.823984|    0.011979|
|          16|   -5.958636|   -7.637625|    0.823984|    0.011979|
|          17|   -5.947668|   -7.630846|    0.823984|    0.011979|
|          18|   -5.938374|   -7.631392|    0.823984|    0.011979|
|          19|   -5.930967|   -7.639138|    0.823984|    0.011979|
|          20|   -5.925557|   -7.653328|    0.823985|    0.011979|
|          21|   -5.922212|   -7.672370|    0.823986|    0.011979|
|          22|   -5.920954|   -7.693748|    0.823987|    0.011979|
|          23|   -5.921711|   -7.714313|    0.823989|    0.011979|
|          24|   -5.924265|   -7.731092|    0.823991|    0.011979|
|          25|   -5.928218|   -7.742349|    0.823993|    0.011979|
|          26|   -5.933009|   -7.748153|    0.823995|    0.011979|
|          27|   -5.937980|   -7.749996|    0.823998|    0.011979|
|          28|   -5.942481|   -7.749807|    0.824001|    0.011980|
|          29|   -5.945976|   -7.749135|    0.824003|    0.011980|
|          30|   -5.948124|   -7.748842|    0.824006|    0.011980|
|          31|   -5.948808|   -7.749194|    0.824009|    0.011981|
|          32|   -5.948111|   -7.750129|    0.824012|    0.011981|
|          33|   -5.946264|   -7.751505|    0.824014|    0.011982|
|          34|   -5.943580|   -7.753257|    0.824017|    0.011983|
|          35|   -5.940404|   -7.755441|    0.824019|    0.011983|
|          36|   -5.937070|   -7.758190|    0.824021|    0.011984|
|          37|   -5.933876|   -7.761640|    0.824023|    0.011985|
|          38|   -5.931062|   -7.765863|    0.824025|    0.011986|
|          39|   -5.928795|   -7.770836|    0.824026|    0.011987|
|          40|   -5.927160|   -7.776444|    0.824027|    0.011988|
|          41|   -5.926156|   -7.782500|    0.824028|    0.011989|
|          42|   -5.925701|   -7.788770|    0.824029|    0.011990|
|          43|   -5.925652|   -7.794988|    0.824030|    0.011991|
|          44|   -5.925825|   -7.800852|    0.824030|    0.011992|
|          45|   -5.926023|   -7.806027|    0.824031|    0.011992|
|          46|   -5.926068|   -7.810147|    0.824031|    0.011993|
|          47|   -5.925815|   -7.812852|    0.824031|    0.011994|
|          48|   -5.925170|   -7.813857|    0.824030|    0.011995|
|          49|   -5.924084|   -7.813023|    0.824030|    0.011995|
|          50|   -5.922553|   -7.810431|    0.824029|    0.011996|
|          51|   -5.920597|   -7.806395|    0.824028|    0.011997|
|          52|   -5.918247|   -7.801431|    0.824027|    0.011997|
|          53|   -5.915539|   -7.796171|    0.824026|    0.011998|
|          54|   -5.912498|   -7.791261|    0.824025|    0.011998|
|          55|   -5.909142|   -7.787278|    0.824024|    0.011999|
|          56|   -5.905482|   -7.784663|    0.824022|    0.011999|
|          57|   -5.901523|   -7.783696|    0.824021|    0.011999|
|          58|   -5.897273|   -7.784492|    0.824019|    0.012000|
|          59|   -5.892741|   -7.787014|    0.824017|    0.012000|
|          60|   -5.887943|   -7.791103|    0.824015|    0.012000|
|          61|   -5.882906|   -7.796513|    0.824013|    0.012001|
|          62|   -5.877661|   -7.802947|    0.824011|    0.012001|
|          63|   -5.872250|   -7.810095|    0.824009|    0.012001|
|          64|   -5.866718|   -7.817662|    0.824007|    0.012001|
|          65|   -5.861116|   -7.825392|    0.824005|    0.012001|
|          66|   -5.855494|   -7.833073|    0.824003|    0.012001|
|          67|   -5.849900|   -7.840538|    0.824001|    0.012001|
|          68|   -5.844377|   -7.847656|    0.823999|    0.012002|
|          69|   -5.838961|   -7.854326|    0.823997|    0.012002|
|          70|   -5.833680|   -7.860471|    0.823995|    0.012002|
|          71|   -5.828553|   -7.866039|    0.823994|    0.012002|
|          72|   -5.823588|   -7.871012|    0.823993|    0.012001|
|          73|   -5.818787|   -7.875402|    0.823991|    0.012001|
|          74|   -5.814145|   -7.879257|    0.823990|    0.012001|
|          75|   -5.809653|   -7.882648|    0.823989|    0.012001|
|          76|   -5.805295|   -7.885657|    0.823988|    0.012001|
|          77|   -5.801060|   -7.888361|    0.823988|    0.012001|
|          78|   -5.796934|   -7.890814|    0.823987|    0.012001|
|          79|   -5.792907|   -7.893040|    0.823987|    0.012001|
|          80|   -5.788975|   -7.895035|    0.823986|    0.012001|
|          81|   -5.785139|   -7.896774|    0.823986|    0.012001|
|          82|   -5.781410|   -7.898229|    0.823986|    0.012001|
|          83|   -5.777805|   -7.899383|    0.823985|    0.012000|
|          84|   -5.774352|   -7.900251|    0.823985|    0.012000|
|          85|   -5.771084|   -7.900882|    0.823985|    0.012000|
|          86|   -5.768043|   -7.901363|    0.823985|    0.012000|
|          87|   -5.765271|   -7.901808|    0.823985|    0.012000|
|          88|   -5.762813|   -7.902345|    0.823985|    0.012000|
|          89|   -5.760710|   -7.903098|    0.823985|    0.011999|
|          90|   -5.759001|   -7.904175|    0.823984|    0.011999|
|          91|   -5.757712|   -7.905657|    0.823984|    0.011999|
|          92|   -5.756864|   -7.907588|    0.823984|    0.011999|
|          93|   -5.756463|   -7.909979|    0.823984|    0.011999|
|          94|   -5.756503|   -7.912808|    0.823984|    0.011998|
|          95|   -5.756965|   -7.916028|    0.823983|    0.011998|
|          96|   -5.757817|   -7.919573|    0.823983|    0.011998|
|          97|   -5.759017|   -7.923369|    0.823983|    0.011997|
|          98|   -5.760510|   -7.927339|    0.823982|    0.011997|
|          99|   -5.762233|   -7.931412|    0.823982|    0.011997|
|         100|   -5.764119|   -7.935528|    0.823982|    0.011996|
|         101|   -5.766093|   -7.939636|    0.823981|    0.011997|
+-----------------------------------------------------------------------+
|Fixed CL Mode                           |Value                         |
+-----------------------------------------------------------------------+
|Current CL                              |0.823981                      |
|Target CL                               |0.824                         |
|Previous AOA                            |2.76696                       |
|Changed AoA by                          |9.15201e-05                   |
+-----------------------------------------------------------------------+
+----------------------------------------------------------------+
|  Inner_Iter|    rms[Rho]|     rms[nu]|          CL|          CD|
+----------------------------------------------------------------+
|         102|   -4.231478|   -7.909853|    0.823981|    0.011997|
|         103|   -4.613261|   -7.930010|    0.823981|    0.011996|
|         104|   -4.851892|   -7.938873|    0.823980|    0.011996|
|         105|   -4.930225|   -7.945454|    0.823980|    0.011996|
|         106|   -4.985615|   -7.951194|    0.823980|    0.011995|
|         107|   -5.057106|   -7.956441|    0.823979|    0.011995|
|         108|   -5.144931|   -7.961321|    0.823979|    0.011994|
|         109|   -5.236133|   -7.965923|    0.823979|    0.011994|
|         110|   -5.313352|   -7.970303|    0.823979|    0.011994|
|         111|   -5.367156|   -7.974484|    0.823979|    0.011993|
|         112|   -5.399052|   -7.978490|    0.823979|    0.011993|
|         113|   -5.413906|   -7.982380|    0.823979|    0.011993|
|         114|   -5.416990|   -7.986232|    0.823979|    0.011993|
|         115|   -5.414927|   -7.990112|    0.823979|    0.011992|
|         116|   -5.414118|   -7.994051|    0.823979|    0.011992|
|         117|   -5.418344|   -7.998050|    0.823979|    0.011992|
|         118|   -5.428113|   -8.002105|    0.823980|    0.011992|
|         119|   -5.441477|   -8.006205|    0.823980|    0.011991|
|         120|   -5.455523|   -8.010340|    0.823980|    0.011991|
|         121|   -5.467978|   -8.014486|    0.823981|    0.011991|
|         122|   -5.478161|   -8.018610|    0.823981|    0.011991|
|         123|   -5.486773|   -8.022665|    0.823981|    0.011991|
|         124|   -5.494948|   -8.026610|    0.823982|    0.011991|
|         125|   -5.503465|   -8.030405|    0.823982|    0.011991|
|         126|   -5.512527|   -8.034025|    0.823983|    0.011991|
|         127|   -5.521943|   -8.037448|    0.823983|    0.011991|
|         128|   -5.531383|   -8.040666|    0.823983|    0.011991|
|         129|   -5.540530|   -8.043655|    0.823984|    0.011991|
|         130|   -5.549121|   -8.046403|    0.823984|    0.011991|
|         131|   -5.556978|   -8.048894|    0.823984|    0.011991|
|         132|   -5.564056|   -8.051109|    0.823985|    0.011991|
|         133|   -5.570484|   -8.053031|    0.823985|    0.011991|
|         134|   -5.576547|   -8.054641|    0.823985|    0.011991|
|         135|   -5.582606|   -8.055921|    0.823986|    0.011991|
|         136|   -5.588985|   -8.056863|    0.823986|    0.011991|
|         137|   -5.595873|   -8.057463|    0.823986|    0.011991|
|         138|   -5.603280|   -8.057728|    0.823986|    0.011991|
|         139|   -5.611020|   -8.057674|    0.823986|    0.011991|
|         140|   -5.618741|   -8.057327|    0.823987|    0.011991|
|         141|   -5.625991|   -8.056726|    0.823987|    0.011991|
|         142|   -5.632312|   -8.055923|    0.823987|    0.011992|
|         143|   -5.637360|   -8.054973|    0.823987|    0.011992|
|         144|   -5.640997|   -8.053938|    0.823988|    0.011992|
|         145|   -5.643320|   -8.052884|    0.823988|    0.011992|
|         146|   -5.644625|   -8.051871|    0.823988|    0.011992|
|         147|   -5.645306|   -8.050957|    0.823988|    0.011992|
|         148|   -5.645746|   -8.050187|    0.823989|    0.011992|
|         149|   -5.646227|   -8.049599|    0.823989|    0.011992|
|         150|   -5.646895|   -8.049213|    0.823990|    0.011992|
|         151|   -5.647753|   -8.049037|    0.823990|    0.011993|
|         152|   -5.648701|   -8.049063|    0.823991|    0.011993|
|         153|   -5.649578|   -8.049275|    0.823991|    0.011993|
|         154|   -5.650223|   -8.049641|    0.823992|    0.011993|
|         155|   -5.650508|   -8.050120|    0.823993|    0.011993|
|         156|   -5.650368|   -8.050661|    0.823993|    0.011993|
|         157|   -5.649804|   -8.051211|    0.823994|    0.011994|
|         158|   -5.648870|   -8.051714|    0.823995|    0.011994|
|         159|   -5.647655|   -8.052117|    0.823996|    0.011994|
|         160|   -5.646260|   -8.052371|    0.823996|    0.011994|
|         161|   -5.644776|   -8.052435|    0.823997|    0.011994|
|         162|   -5.643280|   -8.052282|    0.823998|    0.011995|
|         163|   -5.641825|   -8.051893|    0.823999|    0.011995|
|         164|   -5.640445|   -8.051262|    0.824000|    0.011995|
|         165|   -5.639160|   -8.050397|    0.824001|    0.011995|
|         166|   -5.637981|   -8.049317|    0.824002|    0.011996|
|         167|   -5.636913|   -8.048050|    0.824002|    0.011996|
|         168|   -5.635960|   -8.046633|    0.824003|    0.011996|
|         169|   -5.635125|   -8.045107|    0.824004|    0.011996|
|         170|   -5.634409|   -8.043515|    0.824005|    0.011997|
|         171|   -5.633811|   -8.041901|    0.824005|    0.011997|
|         172|   -5.633329|   -8.040307|    0.824006|    0.011997|
|         173|   -5.632958|   -8.038771|    0.824007|    0.011997|
|         174|   -5.632689|   -8.037327|    0.824007|    0.011997|
|         175|   -5.632514|   -8.036002|    0.824008|    0.011997|
|         176|   -5.632424|   -8.034819|    0.824008|    0.011998|
|         177|   -5.632411|   -8.033794|    0.824008|    0.011998|
|         178|   -5.632469|   -8.032939|    0.824009|    0.011998|
|         179|   -5.632593|   -8.032262|    0.824009|    0.011998|
|         180|   -5.632782|   -8.031765|    0.824009|    0.011998|
|         181|   -5.633037|   -8.031453|    0.824009|    0.011998|
|         182|   -5.633360|   -8.031324|    0.824009|    0.011999|
|         183|   -5.633755|   -8.031374|    0.824009|    0.011999|
|         184|   -5.634226|   -8.031600|    0.824009|    0.011999|
|         185|   -5.634775|   -8.031998|    0.824009|    0.011999|
|         186|   -5.635404|   -8.032564|    0.824008|    0.011999|
|         187|   -5.636113|   -8.033295|    0.824008|    0.011999|
|         188|   -5.636896|   -8.034189|    0.824008|    0.011999|
|         189|   -5.637746|   -8.035246|    0.824007|    0.011999|
|         190|   -5.638651|   -8.036465|    0.824007|    0.011999|
|         191|   -5.639596|   -8.037846|    0.824007|    0.011999|
|         192|   -5.640561|   -8.039387|    0.824006|    0.011999|
|         193|   -5.641521|   -8.041089|    0.824006|    0.011999|
|         194|   -5.642452|   -8.042948|    0.824005|    0.011999|
|         195|   -5.643326|   -8.044962|    0.824004|    0.011999|
|         196|   -5.644114|   -8.047125|    0.824004|    0.011999|
|         197|   -5.644792|   -8.049433|    0.824003|    0.011999|
|         198|   -5.645336|   -8.051878|    0.824003|    0.011999|
|         199|   -5.645728|   -8.054453|    0.824002|    0.011999|
|         200|   -5.645958|   -8.057147|    0.824001|    0.011999|
|         201|   -5.646022|   -8.059952|    0.824001|    0.011999|
+-----------------------------------------------------------------------+
|Fixed CL Mode                           |Value                         |
+-----------------------------------------------------------------------+
|Current CL                              |0.824001                      |
|Target CL                               |0.824                         |
|Previous AOA                            |2.76705                       |
|Changed AoA by                          |-7.15391e-06                  |
+-----------------------------------------------------------------------+
+----------------------------------------------------------------+
|  Inner_Iter|    rms[Rho]|     rms[nu]|          CL|          CD|
+----------------------------------------------------------------+
|         202|   -5.290905|   -8.062578|    0.824000|    0.011999|
|         203|   -5.534278|   -8.065816|    0.824000|    0.011999|
|         204|   -5.610910|   -8.068973|    0.823999|    0.011999|
|         205|   -5.624243|   -8.072142|    0.823998|    0.011999|
|         206|   -5.628278|   -8.075336|    0.823998|    0.011999|
|         207|   -5.631309|   -8.078558|    0.823997|    0.011999|
|         208|   -5.633890|   -8.081811|    0.823997|    0.011999|
|         209|   -5.635636|   -8.085098|    0.823996|    0.011999|
|         210|   -5.636626|   -8.088424|    0.823995|    0.011999|
|         211|   -5.637301|   -8.091792|    0.823995|    0.011999|
|         212|   -5.638045|   -8.095210|    0.823994|    0.011999|
|         213|   -5.639066|   -8.098681|    0.823994|    0.011998|
|         214|   -5.640489|   -8.102212|    0.823993|    0.011998|
|         215|   -5.642437|   -8.105814|    0.823993|    0.011998|
|         216|   -5.645023|   -8.109495|    0.823993|    0.011998|
|         217|   -5.648320|   -8.113269|    0.823992|    0.011998|
|         218|   -5.652340|   -8.117149|    0.823992|    0.011998|
|         219|   -5.657051|   -8.121152|    0.823992|    0.011998|
|         220|   -5.662408|   -8.125296|    0.823991|    0.011998|
|         221|   -5.668387|   -8.129599|    0.823991|    0.011997|
|         222|   -5.674986|   -8.134081|    0.823991|    0.011997|
|         223|   -5.682217|   -8.138761|    0.823991|    0.011997|
|         224|   -5.690086|   -8.143658|    0.823991|    0.011997|
|         225|   -5.698579|   -8.148794|    0.823991|    0.011997|
|         226|   -5.707660|   -8.154185|    0.823991|    0.011997|
|         227|   -5.717267|   -8.159852|    0.823991|    0.011996|
|         228|   -5.727320|   -8.165810|    0.823991|    0.011996|
|         229|   -5.737721|   -8.172078|    0.823991|    0.011996|
|         230|   -5.748356|   -8.178669|    0.823991|    0.011996|
|         231|   -5.759098|   -8.185596|    0.823991|    0.011996|
|         232|   -5.769812|   -8.192871|    0.823991|    0.011996|
|         233|   -5.780356|   -8.200503|    0.823991|    0.011996|
|         234|   -5.790592|   -8.208498|    0.823991|    0.011995|
|         235|   -5.800382|   -8.216860|    0.823992|    0.011995|
|         236|   -5.809599|   -8.225591|    0.823992|    0.011995|
|         237|   -5.818123|   -8.234690|    0.823992|    0.011995|
|         238|   -5.825851|   -8.244152|    0.823992|    0.011995|
|         239|   -5.832697|   -8.253971|    0.823993|    0.011995|
|         240|   -5.838599|   -8.264138|    0.823993|    0.011995|
|         241|   -5.843522|   -8.274639|    0.823993|    0.011995|
|         242|   -5.847462|   -8.285460|    0.823994|    0.011994|
|         243|   -5.850448|   -8.296582|    0.823994|    0.011994|
|         244|   -5.852540|   -8.307988|    0.823994|    0.011994|
|         245|   -5.853824|   -8.319655|    0.823994|    0.011994|
|         246|   -5.854407|   -8.331561|    0.823995|    0.011994|
|         247|   -5.854412|   -8.343684|    0.823995|    0.011994|
|         248|   -5.853964|   -8.356000|    0.823995|    0.011994|
|         249|   -5.853188|   -8.368489|    0.823996|    0.011994|
|         250|   -5.852203|   -8.381129|    0.823996|    0.011994|
|         251|   -5.851119|   -8.393901|    0.823996|    0.011994|
|         252|   -5.850034|   -8.406787|    0.823996|    0.011994|
|         253|   -5.849035|   -8.419775|    0.823997|    0.011994|
|         254|   -5.848197|   -8.432852|    0.823997|    0.011994|
|         255|   -5.847587|   -8.446008|    0.823997|    0.011994|
|         256|   -5.847260|   -8.459237|    0.823997|    0.011993|
|         257|   -5.847267|   -8.472531|    0.823998|    0.011993|
|         258|   -5.847647|   -8.485886|    0.823998|    0.011993|
|         259|   -5.848433|   -8.499296|    0.823998|    0.011993|
|         260|   -5.849654|   -8.512755|    0.823998|    0.011993|
|         261|   -5.851330|   -8.526253|    0.823998|    0.011993|
|         262|   -5.853478|   -8.539779|    0.823999|    0.011993|
|         263|   -5.856106|   -8.553314|    0.823999|    0.011993|
|         264|   -5.859222|   -8.566836|    0.823999|    0.011993|
|         265|   -5.862826|   -8.580318|    0.823999|    0.011993|
|         266|   -5.866917|   -8.593725|    0.823999|    0.011994|
|         267|   -5.871489|   -8.607017|    0.824000|    0.011994|
|         268|   -5.876532|   -8.620147|    0.824000|    0.011994|
|         269|   -5.882034|   -8.633067|    0.824000|    0.011994|
|         270|   -5.887978|   -8.645721|    0.824000|    0.011994|
|         271|   -5.894343|   -8.658055|    0.824000|    0.011994|
|         272|   -5.901108|   -8.670013|    0.824000|    0.011994|
|         273|   -5.908243|   -8.681543|    0.824001|    0.011994|
|         274|   -5.915717|   -8.692595|    0.824001|    0.011994|
|         275|   -5.923493|   -8.703124|    0.824001|    0.011994|
|         276|   -5.931532|   -8.713090|    0.824001|    0.011994|
|         277|   -5.939787|   -8.722462|    0.824001|    0.011994|
|         278|   -5.948208|   -8.731213|    0.824002|    0.011994|
|         279|   -5.956742|   -8.739325|    0.824002|    0.011994|
|         280|   -5.965329|   -8.746783|    0.824002|    0.011994|
|         281|   -5.973907|   -8.753578|    0.824002|    0.011995|
|         282|   -5.982412|   -8.759705|    0.824002|    0.011995|
|         283|   -5.990775|   -8.765165|    0.824003|    0.011995|
|         284|   -5.998931|   -8.769961|    0.824003|    0.011995|
|         285|   -6.006812|   -8.774103|    0.824003|    0.011995|
|         286|   -6.014356|   -8.777608|    0.824003|    0.011995|
|         287|   -6.021503|   -8.780498|    0.824003|    0.011995|
|         288|   -6.028202|   -8.782809|    0.824003|    0.011995|
|         289|   -6.034409|   -8.784584|    0.824003|    0.011995|
|         290|   -6.040090|   -8.785879|    0.824003|    0.011996|
|         291|   -6.045223|   -8.786761|    0.824004|    0.011996|
|         292|   -6.049796|   -8.787305|    0.824004|    0.011996|
|         293|   -6.053809|   -8.787596|    0.824004|    0.011996|
|         294|   -6.057274|   -8.787724|    0.824004|    0.011996|
|         295|   -6.060213|   -8.787782|    0.824004|    0.011996|
|         296|   -6.062654|   -8.787864|    0.824004|    0.011996|
|         297|   -6.064635|   -8.788057|    0.824004|    0.011996|
|         298|   -6.066197|   -8.788445|    0.824004|    0.011996|
|         299|   -6.067384|   -8.789097|    0.824004|    0.011996|
|         300|   -6.068241|   -8.790072|    0.824004|    0.011997|
|         301|   -6.068813|   -8.791408|    0.824004|    0.011996|
+-----------------------------------------------------------------------+
|Fixed CL Mode                           |Value                         |
+-----------------------------------------------------------------------+
|Current CL                              |0.824004                      |
|Target CL                               |0.824                         |
|Previous AOA                            |2.76704                       |
|Changed AoA by                          |-1.87948e-05                  |
+-----------------------------------------------------------------------+
+----------------------------------------------------------------+
|  Inner_Iter|    rms[Rho]|     rms[nu]|          CL|          CD|
+----------------------------------------------------------------+
|         302|   -4.918434|   -8.731282|    0.824004|    0.011996|
|         303|   -5.300198|   -8.764738|    0.824004|    0.011997|
|         304|   -5.539261|   -8.777186|    0.824003|    0.011997|
|         305|   -5.614299|   -8.785202|    0.824003|    0.011997|
|         306|   -5.661898|   -8.791531|    0.824003|    0.011997|
|         307|   -5.720230|   -8.796825|    0.824003|    0.011997|
|         308|   -5.786992|   -8.801273|    0.824003|    0.011997|
|         309|   -5.848479|   -8.804965|    0.824003|    0.011997|
|         310|   -5.892846|   -8.807921|    0.824003|    0.011997|
|         311|   -5.919315|   -8.810101|    0.824003|    0.011997|
|         312|   -5.933650|   -8.811461|    0.824002|    0.011997|
|         313|   -5.940592|   -8.812055|    0.824002|    0.011997|
|         314|   -5.943071|   -8.811956|    0.824002|    0.011997|
|         315|   -5.943832|   -8.811238|    0.824002|    0.011997|
|         316|   -5.945487|   -8.809910|    0.824002|    0.011997|
|         317|   -5.949600|   -8.807961|    0.824002|    0.011997|
|         318|   -5.956239|   -8.805401|    0.824001|    0.011997|
|         319|   -5.964321|   -8.802279|    0.824001|    0.011997|
|         320|   -5.972433|   -8.798679|    0.824001|    0.011997|
|         321|   -5.979627|   -8.794697|    0.824001|    0.011997|
|         322|   -5.985750|   -8.790428|    0.824001|    0.011997|
|         323|   -5.991212|   -8.785965|    0.824001|    0.011997|
|         324|   -5.996523|   -8.781403|    0.824000|    0.011997|
|         325|   -6.001957|   -8.776845|    0.824000|    0.011997|
|         326|   -6.007498|   -8.772387|    0.824000|    0.011997|
|         327|   -6.012959|   -8.768121|    0.824000|    0.011997|
|         328|   -6.018128|   -8.764133|    0.824000|    0.011997|
|         329|   -6.022856|   -8.760495|    0.824000|    0.011997|
|         330|   -6.027082|   -8.757266|    0.823999|    0.011997|
|         331|   -6.030841|   -8.754490|    0.823999|    0.011997|
|         332|   -6.034259|   -8.752194|    0.823999|    0.011997|
|         333|   -6.037537|   -8.750396|    0.823999|    0.011997|
|         334|   -6.040924|   -8.749094|    0.823999|    0.011997|
|         335|   -6.044662|   -8.748272|    0.823999|    0.011997|
|         336|   -6.048942|   -8.747906|    0.823998|    0.011997|
|         337|   -6.053873|   -8.747958|    0.823998|    0.011997|
|         338|   -6.059468|   -8.748385|    0.823998|    0.011996|
|         339|   -6.065655|   -8.749139|    0.823998|    0.011996|
|         340|   -6.072296|   -8.750168|    0.823998|    0.011996|
|         341|   -6.079215|   -8.751425|    0.823998|    0.011996|
|         342|   -6.086236|   -8.752860|    0.823998|    0.011996|
|         343|   -6.093218|   -8.754435|    0.823997|    0.011996|
|         344|   -6.100086|   -8.756112|    0.823997|    0.011996|
|         345|   -6.106839|   -8.757865|    0.823997|    0.011996|
|         346|   -6.113540|   -8.759671|    0.823997|    0.011996|
|         347|   -6.120292|   -8.761520|    0.823997|    0.011996|
|         348|   -6.127199|   -8.763408|    0.823997|    0.011996|
|         349|   -6.134333|   -8.765335|    0.823997|    0.011996|
|         350|   -6.141719|   -8.767313|    0.823997|    0.011996|
|         351|   -6.149321|   -8.769357|    0.823997|    0.011996|
|         352|   -6.157050|   -8.771487|    0.823997|    0.011996|
|         353|   -6.164786|   -8.773726|    0.823996|    0.011996|
|         354|   -6.172389|   -8.776100|    0.823996|    0.011996|
|         355|   -6.179726|   -8.778635|    0.823996|    0.011996|
|         356|   -6.186683|   -8.781354|    0.823996|    0.011995|
|         357|   -6.193175|   -8.784288|    0.823996|    0.011995|
|         358|   -6.199143|   -8.787447|    0.823996|    0.011995|
|         359|   -6.204554|   -8.790847|    0.823996|    0.011995|
|         360|   -6.209389|   -8.794494|    0.823996|    0.011995|
|         361|   -6.213636|   -8.798392|    0.823996|    0.011995|
|         362|   -6.217289|   -8.802533|    0.823996|    0.011995|
|         363|   -6.220338|   -8.806902|    0.823996|    0.011995|
|         364|   -6.222778|   -8.811477|    0.823996|    0.011995|
|         365|   -6.224610|   -8.816227|    0.823996|    0.011995|
|         366|   -6.225841|   -8.821112|    0.823996|    0.011995|
|         367|   -6.226492|   -8.826090|    0.823996|    0.011995|
|         368|   -6.226595|   -8.831116|    0.823996|    0.011995|
|         369|   -6.226196|   -8.836132|    0.823996|    0.011995|
|         370|   -6.225352|   -8.841095|    0.823996|    0.011995|
|         371|   -6.224126|   -8.845951|    0.823997|    0.011995|
|         372|   -6.222587|   -8.850649|    0.823997|    0.011995|
|         373|   -6.220808|   -8.855140|    0.823997|    0.011995|
|         374|   -6.218860|   -8.859379|    0.823997|    0.011995|
|         375|   -6.216815|   -8.863326|    0.823997|    0.011995|
|         376|   -6.214738|   -8.866948|    0.823997|    0.011995|
|         377|   -6.212695|   -8.870218|    0.823997|    0.011995|
|         378|   -6.210745|   -8.873116|    0.823997|    0.011995|
|         379|   -6.208943|   -8.875628|    0.823997|    0.011995|
|         380|   -6.207340|   -8.877745|    0.823997|    0.011995|
|         381|   -6.205978|   -8.879466|    0.823998|    0.011995|
|         382|   -6.204898|   -8.880791|    0.823998|    0.011995|
|         383|   -6.204132|   -8.881728|    0.823998|    0.011995|
|         384|   -6.203709|   -8.882285|    0.823998|    0.011995|
|         385|   -6.203651|   -8.882473|    0.823998|    0.011995|
|         386|   -6.203976|   -8.882307|    0.823999|    0.011995|
|         387|   -6.204696|   -8.881803|    0.823999|    0.011995|
|         388|   -6.205820|   -8.880979|    0.823999|    0.011995|
|         389|   -6.207351|   -8.879854|    0.823999|    0.011995|
|         390|   -6.209289|   -8.878449|    0.823999|    0.011995|
|         391|   -6.211631|   -8.876788|    0.823999|    0.011995|
|         392|   -6.214370|   -8.874896|    0.824000|    0.011995|
|         393|   -6.217493|   -8.872795|    0.824000|    0.011995|
|         394|   -6.220988|   -8.870513|    0.824000|    0.011995|
|         395|   -6.224838|   -8.868074|    0.824000|    0.011995|
|         396|   -6.229023|   -8.865502|    0.824000|    0.011995|
|         397|   -6.233520|   -8.862821|    0.824001|    0.011995|
|         398|   -6.238306|   -8.860052|    0.824001|    0.011995|
|         399|   -6.243352|   -8.857214|    0.824001|    0.011995|
|         400|   -6.248631|   -8.854324|    0.824001|    0.011995|
|         401|   -6.254110|   -8.851395|    0.824001|    0.011995|
+-----------------------------------------------------------------------+
|Fixed CL Mode                           |Value                         |
+-----------------------------------------------------------------------+
|Current CL                              |0.824001                      |
|Target CL                               |0.824                         |
|Previous AOA                            |2.76702                       |
|Changed AoA by                          |-5.94476e-06                  |
+-----------------------------------------------------------------------+
+----------------------------------------------------------------+
|  Inner_Iter|    rms[Rho]|     rms[nu]|          CL|          CD|
+----------------------------------------------------------------+
|         402|   -5.414565|   -8.839798|    0.824002|    0.011995|
|         403|   -5.777750|   -8.841496|    0.824002|    0.011995|
|         404|   -5.980212|   -8.839691|    0.824002|    0.011995|
|         405|   -6.040171|   -8.837289|    0.824002|    0.011995|
|         406|   -6.078987|   -8.834758|    0.824002|    0.011995|
|         407|   -6.123245|   -8.832197|    0.824002|    0.011995|
|         408|   -6.169650|   -8.829619|    0.824002|    0.011995|
|         409|   -6.209248|   -8.827030|    0.824002|    0.011995|
|         410|   -6.237071|   -8.824436|    0.824003|    0.011995|
|         411|   -6.254759|   -8.821854|    0.824003|    0.011995|
|         412|   -6.266114|   -8.819313|    0.824003|    0.011995|
|         413|   -6.273658|   -8.816855|    0.824003|    0.011995|
|         414|   -6.278803|   -8.814533|    0.824003|    0.011995|
|         415|   -6.282831|   -8.812396|    0.824003|    0.011995|
|         416|   -6.286994|   -8.810491|    0.824003|    0.011996|
|         417|   -6.292077|   -8.808858|    0.824003|    0.011996|
|         418|   -6.298121|   -8.807535|    0.824003|    0.011996|
|         419|   -6.304573|   -8.806559|    0.824003|    0.011996|
|         420|   -6.310710|   -8.805965|    0.824003|    0.011996|
|         421|   -6.316045|   -8.805781|    0.824003|    0.011996|
|         422|   -6.320485|   -8.806027|    0.824003|    0.011996|
|         423|   -6.324220|   -8.806714|    0.824003|    0.011996|
|         424|   -6.327504|   -8.807849|    0.824003|    0.011996|
|         425|   -6.330494|   -8.809431|    0.824003|    0.011996|
|         426|   -6.333219|   -8.811455|    0.824003|    0.011996|
|         427|   -6.335626|   -8.813906|    0.824003|    0.011996|
|         428|   -6.337640|   -8.816768|    0.824003|    0.011996|
|         429|   -6.339196|   -8.820017|    0.824002|    0.011996|
|         430|   -6.340250|   -8.823623|    0.824002|    0.011996|
|         431|   -6.340784|   -8.827552|    0.824002|    0.011996|
|         432|   -6.340816|   -8.831765|    0.824002|    0.011996|
|         433|   -6.340403|   -8.836215|    0.824002|    0.011996|
|         434|   -6.339633|   -8.840854|    0.824002|    0.011996|
|         435|   -6.338606|   -8.845628|    0.824002|    0.011996|
|         436|   -6.337420|   -8.850482|    0.824002|    0.011996|
|         437|   -6.336149|   -8.855357|    0.824001|    0.011996|
|         438|   -6.334839|   -8.860196|    0.824001|    0.011996|
|         439|   -6.333512|   -8.864941|    0.824001|    0.011996|
|         440|   -6.332166|   -8.869536|    0.824001|    0.011996|
|         441|   -6.330789|   -8.873931|    0.824001|    0.011996|
|         442|   -6.329373|   -8.878081|    0.824001|    0.011996|
|         443|   -6.327919|   -8.881951|    0.824001|    0.011996|
|         444|   -6.326448|   -8.885514|    0.824000|    0.011996|
|         445|   -6.325001|   -8.888752|    0.824000|    0.011996|
|         446|   -6.323632|   -8.891663|    0.824000|    0.011996|
|         447|   -6.322399|   -8.894250|    0.824000|    0.011996|
|         448|   -6.321360|   -8.896531|    0.824000|    0.011996|
|         449|   -6.320559|   -8.898532|    0.824000|    0.011996|
|         450|   -6.320026|   -8.900286|    0.824000|    0.011996|
|         451|   -6.319779|   -8.901831|    0.823999|    0.011996|
|         452|   -6.319825|   -8.903208|    0.823999|    0.011996|
|         453|   -6.320163|   -8.904462|    0.823999|    0.011996|
|         454|   -6.320791|   -8.905633|    0.823999|    0.011996|
|         455|   -6.321710|   -8.906762|    0.823999|    0.011996|
|         456|   -6.322920|   -8.907886|    0.823999|    0.011996|
|         457|   -6.324429|   -8.909034|    0.823999|    0.011996|
|         458|   -6.326244|   -8.910232|    0.823999|    0.011995|
|         459|   -6.328373|   -8.911496|    0.823998|    0.011995|
|         460|   -6.330822|   -8.912838|    0.823998|    0.011995|
|         461|   -6.333596|   -8.914263|    0.823998|    0.011995|
|         462|   -6.336692|   -8.915765|    0.823998|    0.011995|
|         463|   -6.340105|   -8.917339|    0.823998|    0.011995|
|         464|   -6.343823|   -8.918970|    0.823998|    0.011995|
|         465|   -6.347831|   -8.920643|    0.823998|    0.011995|
|         466|   -6.352111|   -8.922338|    0.823998|    0.011995|
|         467|   -6.356637|   -8.924038|    0.823998|    0.011995|
|         468|   -6.361385|   -8.925724|    0.823998|    0.011995|
|         469|   -6.366324|   -8.927379|    0.823998|    0.011995|
|         470|   -6.371420|   -8.928992|    0.823998|    0.011995|
|         471|   -6.376639|   -8.930554|    0.823998|    0.011995|
|         472|   -6.381939|   -8.932062|    0.823998|    0.011995|
|         473|   -6.387280|   -8.933518|    0.823997|    0.011995|
|         474|   -6.392616|   -8.934929|    0.823997|    0.011995|
|         475|   -6.397899|   -8.936309|    0.823997|    0.011995|
|         476|   -6.403083|   -8.937675|    0.823997|    0.011995|
|         477|   -6.408116|   -8.939046|    0.823997|    0.011995|
|         478|   -6.412953|   -8.940447|    0.823997|    0.011996|
|         479|   -6.417545|   -8.941901|    0.823997|    0.011996|
|         480|   -6.421850|   -8.943431|    0.823997|    0.011996|
|         481|   -6.425826|   -8.945062|    0.823997|    0.011996|
|         482|   -6.429440|   -8.946811|    0.823997|    0.011996|
|         483|   -6.432661|   -8.948695|    0.823998|    0.011996|
|         484|   -6.435467|   -8.950717|    0.823998|    0.011996|
|         485|   -6.437842|   -8.952883|    0.823998|    0.011996|
|         486|   -6.439780|   -8.955193|    0.823998|    0.011996|
|         487|   -6.441280|   -8.957638|    0.823998|    0.011996|
|         488|   -6.442351|   -8.960203|    0.823998|    0.011996|
|         489|   -6.443007|   -8.962864|    0.823998|    0.011996|
|         490|   -6.443271|   -8.965590|    0.823998|    0.011996|
|         491|   -6.443171|   -8.968344|    0.823998|    0.011996|
|         492|   -6.442741|   -8.971082|    0.823998|    0.011996|
|         493|   -6.442018|   -8.973753|    0.823998|    0.011996|
|         494|   -6.441043|   -8.976305|    0.823998|    0.011996|
|         495|   -6.439858|   -8.978681|    0.823998|    0.011996|
|         496|   -6.438507|   -8.980823|    0.823998|    0.011996|
|         497|   -6.437036|   -8.982673|    0.823999|    0.011996|
|         498|   -6.435486|   -8.984176|    0.823999|    0.011996|
|         499|   -6.433902|   -8.985280|    0.823999|    0.011996|
|         500|   -6.432323|   -8.985940|    0.823999|    0.011996|
|         501|   -6.430789|   -8.986117|    0.823999|    0.011996|
+-----------------------------------------------------------------------+
|Fixed CL Mode                           |Value                         |
+-----------------------------------------------------------------------+
|Current CL                              |0.823999                      |
|Target CL                               |0.824                         |
|Previous AOA                            |2.76702                       |
|Changed AoA by                          |5.92806e-06                   |
+-----------------------------------------------------------------------+
+----------------------------------------------------------------+
|  Inner_Iter|    rms[Rho]|     rms[nu]|          CL|          CD|
+----------------------------------------------------------------+
|         502|   -5.418962|   -8.968837|    0.823999|    0.011996|
|         503|   -5.798591|   -8.977106|    0.823999|    0.011996|
|         504|   -6.029182|   -8.978520|    0.823999|    0.011996|
|         505|   -6.094546|   -8.978051|    0.823999|    0.011996|
|         506|   -6.132964|   -8.976480|    0.823999|    0.011996|
|         507|   -6.180240|   -8.974042|    0.824000|    0.011996|
|         508|   -6.233154|   -8.970888|    0.824000|    0.011996|
|         509|   -6.279868|   -8.967159|    0.824000|    0.011996|
|         510|   -6.312349|   -8.962979|    0.824000|    0.011996|
|         511|   -6.331598|   -8.958455|    0.824000|    0.011996|
|         512|   -6.342500|   -8.953681|    0.824000|    0.011996|
|         513|   -6.348592|   -8.948755|    0.824000|    0.011996|
|         514|   -6.351911|   -8.943769|    0.824000|    0.011996|
|         515|   -6.354250|   -8.938804|    0.824000|    0.011996|
|         516|   -6.357301|   -8.933921|    0.824000|    0.011996|
|         517|   -6.362102|   -8.929171|    0.824000|    0.011996|
|         518|   -6.368724|   -8.924599|    0.824000|    0.011996|
|         519|   -6.376486|   -8.920247|    0.824000|    0.011996|
|         520|   -6.384498|   -8.916158|    0.824000|    0.011996|
|         521|   -6.392180|   -8.912366|    0.824000|    0.011996|
|         522|   -6.399460|   -8.908896|    0.824000|    0.011996|
|         523|   -6.406609|   -8.905772|    0.824000|    0.011996|
|         524|   -6.413942|   -8.903006|    0.824000|    0.011996|
|         525|   -6.421603|   -8.900609|    0.824000|    0.011996|
|         526|   -6.429520|   -8.898586|    0.824000|    0.011996|
|         527|   -6.437497|   -8.896939|    0.824000|    0.011996|
|         528|   -6.445308|   -8.895667|    0.824000|    0.011996|
|         529|   -6.452772|   -8.894761|    0.824000|    0.011996|
|         530|   -6.459779|   -8.894210|    0.824000|    0.011996|
|         531|   -6.466296|   -8.893999|    0.824000|    0.011996|
|         532|   -6.472371|   -8.894105|    0.824000|    0.011996|
|         533|   -6.478125|   -8.894504|    0.824000|    0.011996|
|         534|   -6.483722|   -8.895167|    0.824000|    0.011996|
|         535|   -6.489330|   -8.896060|    0.824000|    0.011996|
|         536|   -6.495074|   -8.897147|    0.824000|    0.011996|
|         537|   -6.501011|   -8.898392|    0.824000|    0.011996|
|         538|   -6.507114|   -8.899755|    0.824000|    0.011996|
|         539|   -6.513277|   -8.901199|    0.824000|    0.011996|
|         540|   -6.519336|   -8.902690|    0.824000|    0.011996|
|         541|   -6.525099|   -8.904196|    0.824000|    0.011996|
|         542|   -6.530379|   -8.905687|    0.824000|    0.011996|
|         543|   -6.535029|   -8.907142|    0.824000|    0.011996|
|         544|   -6.538971|   -8.908544|    0.824000|    0.011996|
|         545|   -6.542204|   -8.909880|    0.824000|    0.011996|
|         546|   -6.544787|   -8.911146|    0.824000|    0.011996|
|         547|   -6.546820|   -8.912345|    0.824000|    0.011996|
|         548|   -6.548409|   -8.913481|    0.824000|    0.011996|
|         549|   -6.549640|   -8.914564|    0.824000|    0.011996|
|         550|   -6.550569|   -8.915611|    0.824000|    0.011996|
|         551|   -6.551216|   -8.916641|    0.824000|    0.011996|
|         552|   -6.551577|   -8.917674|    0.824000|    0.011996|
|         553|   -6.551635|   -8.918735|    0.824000|    0.011996|
|         554|   -6.551378|   -8.919850|    0.824000|    0.011996|
|         555|   -6.550811|   -8.921044|    0.824000|    0.011996|
|         556|   -6.549957|   -8.922344|    0.824000|    0.011996|
|         557|   -6.548859|   -8.923776|    0.824000|    0.011995|
|         558|   -6.547578|   -8.925371|    0.824000|    0.011995|
|         559|   -6.546182|   -8.927143|    0.824000|    0.011995|
|         560|   -6.544741|   -8.929107|    0.824000|    0.011995|
|         561|   -6.543323|   -8.931276|    0.824000|    0.011995|
|         562|   -6.541985|   -8.933662|    0.824000|    0.011995|
|         563|   -6.540780|   -8.936276|    0.824000|    0.011995|
|         564|   -6.539751|   -8.939123|    0.824000|    0.011995|
|         565|   -6.538934|   -8.942206|    0.824000|    0.011995|
|         566|   -6.538362|   -8.945527|    0.824001|    0.011995|
|         567|   -6.538063|   -8.949080|    0.824001|    0.011995|
|         568|   -6.538063|   -8.952860|    0.824001|    0.011995|
|         569|   -6.538387|   -8.956853|    0.824001|    0.011995|
|         570|   -6.539055|   -8.961046|    0.824001|    0.011995|
|         571|   -6.540089|   -8.965420|    0.824001|    0.011995|
|         572|   -6.541503|   -8.969954|    0.824001|    0.011995|
|         573|   -6.543314|   -8.974623|    0.824001|    0.011995|
|         574|   -6.545531|   -8.979401|    0.824001|    0.011995|
|         575|   -6.548163|   -8.984259|    0.824001|    0.011995|
|         576|   -6.551216|   -8.989166|    0.824001|    0.011995|
|         577|   -6.554690|   -8.994092|    0.824001|    0.011995|
|         578|   -6.558585|   -8.999006|    0.824001|    0.011995|
|         579|   -6.562897|   -9.003877|    0.824001|    0.011995|
|         580|   -6.567619|   -9.008676|    0.824001|    0.011995|
|         581|   -6.572740|   -9.013377|    0.824001|    0.011995|
|         582|   -6.578246|   -9.017954|    0.824001|    0.011995|
|         583|   -6.584118|   -9.022389|    0.824002|    0.011995|
|         584|   -6.590335|   -9.026665|    0.824002|    0.011995|
|         585|   -6.596870|   -9.030771|    0.824002|    0.011995|
|         586|   -6.603692|   -9.034703|    0.824002|    0.011995|
|         587|   -6.610765|   -9.038458|    0.824002|    0.011995|
|         588|   -6.618050|   -9.042043|    0.824002|    0.011995|
|         589|   -6.625501|   -9.045467|    0.824002|    0.011995|
|         590|   -6.633069|   -9.048745|    0.824002|    0.011995|
|         591|   -6.640700|   -9.051894|    0.824002|    0.011996|
|         592|   -6.648335|   -9.054937|    0.824002|    0.011996|
|         593|   -6.655913|   -9.057899|    0.824002|    0.011996|
|         594|   -6.663369|   -9.060805|    0.824002|    0.011996|
|         595|   -6.670638|   -9.063683|    0.824002|    0.011996|
|         596|   -6.677653|   -9.066561|    0.824002|    0.011996|
|         597|   -6.684349|   -9.069466|    0.824002|    0.011996|
|         598|   -6.690665|   -9.072424|    0.824002|    0.011996|
|         599|   -6.696543|   -9.075460|    0.824002|    0.011996|
|         600|   -6.701934|   -9.078598|    0.824002|    0.011996|
|         601|   -6.706795|   -9.081858|    0.824002|    0.011996|
+-----------------------------------------------------------------------+
|Fixed CL Mode                           |Value                         |
+-----------------------------------------------------------------------+
|Current CL                              |0.824002                      |
|Target CL                               |0.824                         |
|Previous AOA                            |2.76702                       |
|Changed AoA by                          |-9.50481e-06                  |
+-----------------------------------------------------------------------+
+----------------------------------------------------------------+
|  Inner_Iter|    rms[Rho]|     rms[nu]|          CL|          CD|
+----------------------------------------------------------------+
|         602|   -5.215121|   -9.019379|    0.824002|    0.011996|
|         603|   -5.597807|   -9.052492|    0.824002|    0.011996|
|         604|   -5.837676|   -9.065273|    0.824002|    0.011996|
|         605|   -5.914794|   -9.074105|    0.824002|    0.011996|
|         606|   -5.967802|   -9.081750|    0.824002|    0.011996|
|         607|   -6.036102|   -9.088878|    0.824002|    0.011996|
|         608|   -6.119469|   -9.095697|    0.824002|    0.011996|
|         609|   -6.204930|   -9.102302|    0.824002|    0.011996|
|         610|   -6.276656|   -9.108725|    0.824002|    0.011996|
|         611|   -6.327509|   -9.114938|    0.824002|    0.011996|
|         612|   -6.359893|   -9.120919|    0.824002|    0.011996|
|         613|   -6.377981|   -9.126721|    0.824002|    0.011996|
|         614|   -6.385625|   -9.132441|    0.824002|    0.011996|
|         615|   -6.388074|   -9.138153|    0.824002|    0.011996|
|         616|   -6.390997|   -9.143873|    0.824002|    0.011996|
|         617|   -6.398093|   -9.149573|    0.824002|    0.011996|
|         618|   -6.410101|   -9.155226|    0.824002|    0.011996|
|         619|   -6.425359|   -9.160832|    0.824002|    0.011996|
|         620|   -6.441203|   -9.166405|    0.824002|    0.011996|
|         621|   -6.455523|   -9.171954|    0.824002|    0.011996|
|         622|   -6.467707|   -9.177461|    0.824002|    0.011996|
|         623|   -6.478437|   -9.182881|    0.824002|    0.011996|
|         624|   -6.488762|   -9.188152|    0.824002|    0.011996|
|         625|   -6.499312|   -9.193208|    0.824002|    0.011996|
|         626|   -6.510101|   -9.197990|    0.824002|    0.011996|
|         627|   -6.520744|   -9.202450|    0.824002|    0.011996|
|         628|   -6.530767|   -9.206544|    0.824002|    0.011996|
|         629|   -6.539800|   -9.210238|    0.824002|    0.011996|
|         630|   -6.547644|   -9.213501|    0.824002|    0.011996|
|         631|   -6.554284|   -9.216311|    0.824002|    0.011996|
|         632|   -6.559908|   -9.218650|    0.824002|    0.011996|
|         633|   -6.564902|   -9.220506|    0.824002|    0.011996|
|         634|   -6.569788|   -9.221873|    0.824002|    0.011996|
|         635|   -6.575113|   -9.222751|    0.824002|    0.011996|
|         636|   -6.581332|   -9.223147|    0.824002|    0.011996|
|         637|   -6.588723|   -9.223074|    0.824002|    0.011996|
|         638|   -6.597353|   -9.222557|    0.824002|    0.011996|
|         639|   -6.607078|   -9.221627|    0.824002|    0.011996|
|         640|   -6.617570|   -9.220320|    0.824002|    0.011996|
|         641|   -6.628379|   -9.218683|    0.824002|    0.011996|
|         642|   -6.639019|   -9.216767|    0.824002|    0.011996|
|         643|   -6.649088|   -9.214630|    0.824002|    0.011996|
|         644|   -6.658363|   -9.212329|    0.824002|    0.011996|
|         645|   -6.666867|   -9.209922|    0.824002|    0.011996|
|         646|   -6.674849|   -9.207465|    0.824002|    0.011996|
|         647|   -6.682699|   -9.205010|    0.824001|    0.011996|
|         648|   -6.690840|   -9.202606|    0.824001|    0.011996|
|         649|   -6.699615|   -9.200295|    0.824001|    0.011996|
|         650|   -6.709223|   -9.198116|    0.824001|    0.011996|
|         651|   -6.719693|   -9.196105|    0.824001|    0.011996|
|         652|   -6.730900|   -9.194294|    0.824001|    0.011996|
|         653|   -6.742601|   -9.192711|    0.824001|    0.011996|
|         654|   -6.754501|   -9.191384|    0.824001|    0.011996|
|         655|   -6.766307|   -9.190342|    0.824001|    0.011996|
|         656|   -6.777786|   -9.189613|    0.824001|    0.011996|
|         657|   -6.788788|   -9.189218|    0.824001|    0.011996|
|         658|   -6.799263|   -9.189181|    0.824001|    0.011996|
|         659|   -6.809233|   -9.189522|    0.824001|    0.011996|
|         660|   -6.818768|   -9.190280|    0.824001|    0.011996|
|         661|   -6.827948|   -9.191458|    0.824001|    0.011996|
|         662|   -6.836834|   -9.193069|    0.824001|    0.011996|
|         663|   -6.845457|   -9.195121|    0.824001|    0.011996|
|         664|   -6.853810|   -9.197612|    0.824001|    0.011996|
|         665|   -6.861859|   -9.200544|    0.824000|    0.011996|
|         666|   -6.869553|   -9.203897|    0.824000|    0.011995|
|         667|   -6.876845|   -9.207647|    0.824000|    0.011995|
|         668|   -6.883695|   -9.211755|    0.824000|    0.011995|
|         669|   -6.890079|   -9.216185|    0.824000|    0.011995|
|         670|   -6.895993|   -9.220870|    0.824000|    0.011995|
|         671|   -6.901446|   -9.225735|    0.824000|    0.011995|
|         672|   -6.906460|   -9.230696|    0.824000|    0.011995|
|         673|   -6.911061|   -9.235659|    0.824000|    0.011995|
|         674|   -6.915283|   -9.240518|    0.824000|    0.011995|
|         675|   -6.919160|   -9.245166|    0.824000|    0.011995|
|         676|   -6.922727|   -9.249493|    0.824000|    0.011995|
|         677|   -6.926024|   -9.253399|    0.824000|    0.011995|
|         678|   -6.929094|   -9.256810|    0.824000|    0.011995|
|         679|   -6.931983|   -9.259649|    0.824000|    0.011995|
|         680|   -6.934740|   -9.261858|    0.824000|    0.011995|
|         681|   -6.937417|   -9.263412|    0.824000|    0.011995|
|         682|   -6.940067|   -9.264324|    0.824000|    0.011995|
|         683|   -6.942744|   -9.264639|    0.824000|    0.011995|
|         684|   -6.945501|   -9.264432|    0.824000|    0.011995|
|         685|   -6.948388|   -9.263805|    0.824000|    0.011995|
|         686|   -6.951452|   -9.262878|    0.824000|    0.011995|
|         687|   -6.954738|   -9.261784|    0.824000|    0.011995|
|         688|   -6.958286|   -9.260658|    0.824000|    0.011995|
|         689|   -6.962132|   -9.259638|    0.824000|    0.011995|
|         690|   -6.966308|   -9.258852|    0.824000|    0.011995|
|         691|   -6.970840|   -9.258418|    0.824000|    0.011995|
|         692|   -6.975750|   -9.258442|    0.824000|    0.011995|
|         693|   -6.981054|   -9.259012|    0.824000|    0.011995|
|         694|   -6.986764|   -9.260200|    0.824000|    0.011995|
|         695|   -6.992884|   -9.262060|    0.824000|    0.011995|
|         696|   -6.999415|   -9.264627|    0.824000|    0.011995|
|         697|   -7.006350|   -9.267920|    0.824000|    0.011995|
|         698|   -7.013679|   -9.271938|    0.824000|    0.011995|
|         699|   -7.021383|   -9.276661|    0.824001|    0.011995|
|         700|   -7.029439|   -9.282053|    0.824001|    0.011995|
|         701|   -7.037819|   -9.288057|    0.824001|    0.011995|
+-----------------------------------------------------------------------+
|Fixed CL Mode                           |Value                         |
+-----------------------------------------------------------------------+
|Current CL                              |0.824001                      |
|Target CL                               |0.824                         |
|Previous AOA                            |2.76701                       |
|Changed AoA by                          |-3.23819e-06                  |
+-----------------------------------------------------------------------+
+----------------------------------------------------------------+
|  Inner_Iter|    rms[Rho]|     rms[nu]|          CL|          CD|
+----------------------------------------------------------------+
|         702|   -5.682449|   -9.271428|    0.824001|    0.011995|
|         703|   -6.062560|   -9.288953|    0.824001|    0.011995|
|         704|   -6.295350|   -9.299458|    0.824001|    0.011995|
|         705|   -6.368590|   -9.308746|    0.824001|    0.011995|
|         706|   -6.419876|   -9.317597|    0.824001|    0.011995|
|         707|   -6.486256|   -9.326089|    0.824001|    0.011995|
|         708|   -6.567123|   -9.334152|    0.824001|    0.011995|
|         709|   -6.650469|   -9.341685|    0.824001|    0.011995|
|         710|   -6.722364|   -9.348565|    0.824001|    0.011995|
|         711|   -6.776696|   -9.354650|    0.824001|    0.011995|
|         712|   -6.815079|   -9.359813|    0.824002|    0.011995|
|         713|   -6.840094|   -9.363976|    0.824002|    0.011995|
|         714|   -6.854066|   -9.367106|    0.824002|    0.011995|
|         715|   -6.861364|   -9.369209|    0.824002|    0.011995|
|         716|   -6.867685|   -9.370304|    0.824002|    0.011996|
|         717|   -6.877275|   -9.370434|    0.824002|    0.011996|
|         718|   -6.891473|   -9.369684|    0.824002|    0.011996|
|         719|   -6.909067|   -9.368174|    0.824002|    0.011996|
|         720|   -6.927654|   -9.366045|    0.824002|    0.011996|
|         721|   -6.945212|   -9.363447|    0.824002|    0.011996|
|         722|   -6.961095|   -9.360524|    0.824002|    0.011996|
|         723|   -6.975869|   -9.357411|    0.824002|    0.011996|
|         724|   -6.990396|   -9.354227|    0.824002|    0.011996|
|         725|   -7.005017|   -9.351074|    0.824002|    0.011996|
|         726|   -7.019346|   -9.348052|    0.824002|    0.011996|
|         727|   -7.032557|   -9.345267|    0.824002|    0.011996|
|         728|   -7.043814|   -9.342806|    0.824002|    0.011996|
|         729|   -7.052583|   -9.340747|    0.824002|    0.011996|
|         730|   -7.058733|   -9.339152|    0.824002|    0.011996|
|         731|   -7.062520|   -9.338072|    0.824002|    0.011996|
|         732|   -7.064508|   -9.337544|    0.824002|    0.011996|
|         733|   -7.065456|   -9.337596|    0.824002|    0.011996|
|         734|   -7.066169|   -9.338244|    0.824002|    0.011996|
|         735|   -7.067342|   -9.339493|    0.824002|    0.011996|
|         736|   -7.069441|   -9.341343|    0.824002|    0.011996|
|         737|   -7.072655|   -9.343785|    0.824002|    0.011996|
|         738|   -7.076909|   -9.346805|    0.824002|    0.011996|
|         739|   -7.081906|   -9.350382|    0.824002|    0.011996|
|         740|   -7.087204|   -9.354495|    0.824002|    0.011996|
|         741|   -7.092303|   -9.359114|    0.824002|    0.011996|
|         742|   -7.096759|   -9.364209|    0.824002|    0.011996|
|         743|   -7.100288|   -9.369747|    0.824002|    0.011996|
|         744|   -7.102837|   -9.375688|    0.824002|    0.011996|
|         745|   -7.104589|   -9.381991|    0.824002|    0.011996|
|         746|   -7.105903|   -9.388609|    0.824002|    0.011996|
|         747|   -7.107205|   -9.395490|    0.824002|    0.011996|
|         748|   -7.108882|   -9.402580|    0.824002|    0.011996|
|         749|   -7.111208|   -9.409815|    0.824001|    0.011996|
|         750|   -7.114302|   -9.417131|    0.824001|    0.011996|
|         751|   -7.118141|   -9.424455|    0.824001|    0.011996|
|         752|   -7.122588|   -9.431713|    0.824001|    0.011996|
|         753|   -7.127443|   -9.438825|    0.824001|    0.011996|
|         754|   -7.132491|   -9.445710|    0.824001|    0.011996|
|         755|   -7.137551|   -9.452286|    0.824001|    0.011996|
|         756|   -7.142497|   -9.458471|    0.824001|    0.011996|
|         757|   -7.147274|   -9.464187|    0.824001|    0.011996|
|         758|   -7.151884|   -9.469360|    0.824001|    0.011996|
|         759|   -7.156371|   -9.473923|    0.824001|    0.011996|
|         760|   -7.160793|   -9.477819|    0.824001|    0.011996|
|         761|   -7.165201|   -9.481008|    0.824001|    0.011996|
|         762|   -7.169625|   -9.483457|    0.824001|    0.011996|
|         763|   -7.174068|   -9.485152|    0.824001|    0.011996|
|         764|   -7.178509|   -9.486098|    0.824001|    0.011996|
|         765|   -7.182907|   -9.486318|    0.824001|    0.011996|
|         766|   -7.187213|   -9.485852|    0.824001|    0.011996|
|         767|   -7.191373|   -9.484755|    0.824001|    0.011996|
|         768|   -7.195339|   -9.483099|    0.824001|    0.011996|
|         769|   -7.199068|   -9.480966|    0.824001|    0.011996|
|         770|   -7.202526|   -9.478446|    0.824001|    0.011996|
|         771|   -7.205683|   -9.475633|    0.824001|    0.011996|
|         772|   -7.208515|   -9.472624|    0.824000|    0.011996|
|         773|   -7.211000|   -9.469514|    0.824000|    0.011996|
|         774|   -7.213120|   -9.466391|    0.824000|    0.011996|
|         775|   -7.214861|   -9.463337|    0.824000|    0.011996|
|         776|   -7.216209|   -9.460427|    0.824000|    0.011996|
|         777|   -7.217161|   -9.457722|    0.824000|    0.011996|
|         778|   -7.217716|   -9.455274|    0.824000|    0.011996|
|         779|   -7.217882|   -9.453123|    0.824000|    0.011996|
|         780|   -7.217674|   -9.451298|    0.824000|    0.011996|
|         781|   -7.217114|   -9.449813|    0.824000|    0.011996|
|         782|   -7.216230|   -9.448676|    0.824000|    0.011996|
|         783|   -7.215054|   -9.447880|    0.824000|    0.011996|
|         784|   -7.213622|   -9.447414|    0.824000|    0.011996|
|         785|   -7.211972|   -9.447255|    0.824000|    0.011996|
|         786|   -7.210143|   -9.447377|    0.824000|    0.011995|
|         787|   -7.208174|   -9.447748|    0.824000|    0.011995|
|         788|   -7.206101|   -9.448336|    0.824000|    0.011995|
|         789|   -7.203959|   -9.449106|    0.824000|    0.011995|
|         790|   -7.201779|   -9.450027|    0.824000|    0.011995|
|         791|   -7.199590|   -9.451070|    0.824000|    0.011995|
|         792|   -7.197414|   -9.452212|    0.824000|    0.011995|
|         793|   -7.195272|   -9.453436|    0.824000|    0.011995|
|         794|   -7.193180|   -9.454733|    0.824000|    0.011995|
|         795|   -7.191149|   -9.456101|    0.824000|    0.011995|
|         796|   -7.189187|   -9.457545|    0.824000|    0.011995|
|         797|   -7.187298|   -9.459078|    0.824001|    0.011995|
|         798|   -7.185484|   -9.460719|    0.824001|    0.011995|
|         799|   -7.183744|   -9.462489|    0.824001|    0.011995|
|         800|   -7.182074|   -9.464414|    0.824001|    0.011995|
|         801|   -7.180469|   -9.466520|    0.824001|    0.011995|
+-----------------------------------------------------------------------+
|Fixed CL Mode                           |Value                         |
+-----------------------------------------------------------------------+
|Current CL                              |0.824001                      |
|Target CL                               |0.824                         |
|Previous AOA                            |2.76701                       |
|Changed AoA by                          |-3.11021e-06                  |
+-----------------------------------------------------------------------+
+----------------------------------------------------------------+
|  Inner_Iter|    rms[Rho]|     rms[nu]|          CL|          CD|
+----------------------------------------------------------------+
|         802|   -5.700187|   -9.424510|    0.824001|    0.011995|
|         803|   -6.081210|   -9.447373|    0.824001|    0.011995|
|         804|   -6.315938|   -9.456372|    0.824001|    0.011995|
|         805|   -6.389967|   -9.462833|    0.824001|    0.011995|
|         806|   -6.441579|   -9.468592|    0.824001|    0.011995|
|         807|   -6.508458|   -9.474096|    0.824001|    0.011995|
|         808|   -6.590069|   -9.479488|    0.824001|    0.011995|
|         809|   -6.674105|   -9.484833|    0.824001|    0.011995|
|         810|   -6.745989|   -9.490137|    0.824001|    0.011995|
|         811|   -6.799103|   -9.495343|    0.824001|    0.011995|
|         812|   -6.835102|   -9.500386|    0.824001|    0.011995|
|         813|   -6.857007|   -9.505227|    0.824001|    0.011995|
|         814|   -6.867734|   -9.509842|    0.824001|    0.011995|
|         815|   -6.872072|   -9.514209|    0.824001|    0.011995|
|         816|   -6.875735|   -9.518262|    0.824001|    0.011995|
|         817|   -6.882715|   -9.521922|    0.824001|    0.011995|
|         818|   -6.894062|   -9.525136|    0.824001|    0.011995|
|         819|   -6.908397|   -9.527883|    0.824001|    0.011995|
|         820|   -6.923316|   -9.530169|    0.824001|    0.011995|
|         821|   -6.936917|   -9.532009|    0.824001|    0.011995|
|         822|   -6.948673|   -9.533420|    0.824001|    0.011995|
|         823|   -6.959191|   -9.534415|    0.824001|    0.011995|
|         824|   -6.969331|   -9.535010|    0.824001|    0.011995|
|         825|   -6.979493|   -9.535233|    0.824002|    0.011995|
|         826|   -6.989480|   -9.535123|    0.824002|    0.011995|
|         827|   -6.998757|   -9.534734|    0.824002|    0.011995|
|         828|   -7.006792|   -9.534127|    0.824002|    0.011995|
|         829|   -7.013260|   -9.533369|    0.824002|    0.011995|
|         830|   -7.018088|   -9.532526|    0.824002|    0.011995|
|         831|   -7.021434|   -9.531660|    0.824002|    0.011996|
|         832|   -7.023643|   -9.530831|    0.824002|    0.011996|
|         833|   -7.025200|   -9.530086|    0.824002|    0.011996|
|         834|   -7.026642|   -9.529466|    0.824002|    0.011996|
|         835|   -7.028457|   -9.529001|    0.824002|    0.011996|
|         836|   -7.030991|   -9.528710|    0.824002|    0.011996|
|         837|   -7.034397|   -9.528598|    0.824002|    0.011996|
|         838|   -7.038632|   -9.528672|    0.824002|    0.011996|
|         839|   -7.043485|   -9.528938|    0.824002|    0.011996|
|         840|   -7.048623|   -9.529393|    0.824002|    0.011996|
|         841|   -7.053661|   -9.530035|    0.824002|    0.011996|
|         842|   -7.058241|   -9.530862|    0.824002|    0.011996|
|         843|   -7.062117|   -9.531871|    0.824002|    0.011996|
|         844|   -7.065213|   -9.533059|    0.824002|    0.011996|
|         845|   -7.067632|   -9.534429|    0.824002|    0.011996|
|         846|   -7.069615|   -9.535981|    0.824001|    0.011996|
|         847|   -7.071468|   -9.537718|    0.824001|    0.011996|
|         848|   -7.073475|   -9.539647|    0.824001|    0.011996|
|         849|   -7.075839|   -9.541774|    0.824001|    0.011996|
|         850|   -7.078646|   -9.544105|    0.824001|    0.011996|
|         851|   -7.081870|   -9.546650|    0.824001|    0.011996|
|         852|   -7.085393|   -9.549417|    0.824001|    0.011996|
|         853|   -7.089049|   -9.552416|    0.824001|    0.011996|
|         854|   -7.092665|   -9.555656|    0.824001|    0.011996|
|         855|   -7.096093|   -9.559146|    0.824001|    0.011996|
|         856|   -7.099235|   -9.562895|    0.824001|    0.011996|
|         857|   -7.102051|   -9.566911|    0.824001|    0.011996|
|         858|   -7.104547|   -9.571202|    0.824001|    0.011996|
|         859|   -7.106767|   -9.575774|    0.824001|    0.011996|
|         860|   -7.108764|   -9.580631|    0.824001|    0.011996|
|         861|   -7.110590|   -9.585776|    0.824001|    0.011996|
|         862|   -7.112287|   -9.591208|    0.824001|    0.011996|
|         863|   -7.113876|   -9.596933|    0.824001|    0.011996|
|         864|   -7.115366|   -9.602941|    0.824001|    0.011996|
|         865|   -7.116756|   -9.609223|    0.824001|    0.011996|
|         866|   -7.118043|   -9.615766|    0.824001|    0.011996|
|         867|   -7.119222|   -9.622554|    0.824001|    0.011996|
|         868|   -7.120296|   -9.629559|    0.824001|    0.011996|
|         869|   -7.121274|   -9.636747|    0.824001|    0.011996|
|         870|   -7.122167|   -9.644072|    0.824001|    0.011996|
|         871|   -7.122992|   -9.651477|    0.824001|    0.011996|
|         872|   -7.123769|   -9.658891|    0.824001|    0.011996|
|         873|   -7.124515|   -9.666226|    0.824001|    0.011996|
|         874|   -7.125250|   -9.673382|    0.824000|    0.011996|
|         875|   -7.125989|   -9.680242|    0.824000|    0.011996|
|         876|   -7.126749|   -9.686681|    0.824000|    0.011996|
|         877|   -7.127545|   -9.692563|    0.824000|    0.011996|
|         878|   -7.128393|   -9.697755|    0.824000|    0.011996|
|         879|   -7.129308|   -9.702126|    0.824000|    0.011996|
|         880|   -7.130305|   -9.705563|    0.824000|    0.011996|
|         881|   -7.131399|   -9.707976|    0.824000|    0.011996|
|         882|   -7.132605|   -9.709309|    0.824000|    0.011996|
|         883|   -7.133938|   -9.709544|    0.824000|    0.011996|
|         884|   -7.135410|   -9.708705|    0.824000|    0.011996|
|         885|   -7.137034|   -9.706859|    0.824000|    0.011996|
|         886|   -7.138822|   -9.704111|    0.824000|    0.011996|
|         887|   -7.140782|   -9.700598|    0.824000|    0.011996|
|         888|   -7.142921|   -9.696482|    0.824000|    0.011996|
|         889|   -7.145246|   -9.691936|    0.824000|    0.011996|
|         890|   -7.147757|   -9.687142|    0.824000|    0.011996|
|         891|   -7.150455|   -9.682278|    0.824000|    0.011996|
|         892|   -7.153338|   -9.677510|    0.824000|    0.011996|
|         893|   -7.156398|   -9.672996|    0.824000|    0.011996|
|         894|   -7.159626|   -9.668872|    0.824000|    0.011996|
|         895|   -7.163011|   -9.665261|    0.824000|    0.011996|
|         896|   -7.166536|   -9.662263|    0.824000|    0.011996|
|         897|   -7.170182|   -9.659963|    0.824000|    0.011996|
|         898|   -7.173929|   -9.658425|    0.824000|    0.011996|
|         899|   -7.177752|   -9.657697|    0.824000|    0.011996|
|         900|   -7.181624|   -9.657809|    0.824000|    0.011996|
|         901|   -7.185516|   -9.658776|    0.824000|    0.011996|
|         902|   -7.189397|   -9.660595|    0.824000|    0.011996|
|         903|   -7.193237|   -9.663250|    0.824000|    0.011996|
|         904|   -7.197003|   -9.666706|    0.824000|    0.011996|
|         905|   -7.200663|   -9.670913|    0.824000|    0.011996|
|         906|   -7.204185|   -9.675805|    0.824000|    0.011996|
|         907|   -7.207539|   -9.681298|    0.824000|    0.011996|
[...]
|        5298|   -6.047520|   -7.941310|    0.824239|    0.012000|
|        5299|   -6.054215|   -7.945254|    0.824239|    0.012000|
|        5300|   -6.060482|   -7.949230|    0.824239|    0.012000|
|        5301|   -6.066288|   -7.953255|    0.824239|    0.012000|
|        5302|   -6.071611|   -7.957343|    0.824239|    0.012000|
|        5303|   -6.076444|   -7.961508|    0.824240|    0.012000|
|        5304|   -6.080790|   -7.965757|    0.824240|    0.012000|
|        5305|   -6.084668|   -7.970099|    0.824240|    0.011999|
|        5306|   -6.088104|   -7.974540|    0.824240|    0.011999|
|        5307|   -6.091137|   -7.979084|    0.824240|    0.011999|
|        5308|   -6.093814|   -7.983734|    0.824240|    0.011999|
|        5309|   -6.096187|   -7.988493|    0.824240|    0.011999|
|        5310|   -6.098314|   -7.993362|    0.824240|    0.011999|
|        5311|   -6.100254|   -7.998343|    0.824240|    0.011999|
|        5312|   -6.102066|   -8.003436|    0.824240|    0.011999|
|        5313|   -6.103809|   -8.008645|    0.824240|    0.011999|
|        5314|   -6.105540|   -8.013969|    0.824240|    0.011999|
|        5315|   -6.107310|   -8.019413|    0.824241|    0.011999|
|        5316|   -6.109167|   -8.024979|    0.824241|    0.011999|
|        5317|   -6.111153|   -8.030670|    0.824241|    0.011999|
|        5318|   -6.113304|   -8.036490|    0.824241|    0.011999|
|        5319|   -6.115650|   -8.042441|    0.824241|    0.011999|
|        5320|   -6.118213|   -8.048528|    0.824241|    0.012000|
|        5321|   -6.121009|   -8.054750|    0.824241|    0.012000|
|        5322|   -6.124049|   -8.061112|    0.824241|    0.012000|
|        5323|   -6.127337|   -8.067612|    0.824242|    0.012000|
|        5324|   -6.130868|   -8.074251|    0.824242|    0.012000|
|        5325|   -6.134631|   -8.081026|    0.824242|    0.012000|
|        5326|   -6.138611|   -8.087933|    0.824242|    0.012000|
|        5327|   -6.142784|   -8.094965|    0.824242|    0.012000|
|        5328|   -6.147122|   -8.102118|    0.824242|    0.012000|
|        5329|   -6.151592|   -8.109386|    0.824242|    0.012000|
|        5330|   -6.156157|   -8.116759|    0.824243|    0.012000|
|        5331|   -6.160776|   -8.124227|    0.824243|    0.012000|
|        5332|   -6.165405|   -8.131783|    0.824243|    0.012000|
|        5333|   -6.170000|   -8.139417|    0.824243|    0.012000|
|        5334|   -6.174514|   -8.147118|    0.824243|    0.012001|
|        5335|   -6.178903|   -8.154875|    0.824243|    0.012001|
|        5336|   -6.183127|   -8.162678|    0.824243|    0.012001|
|        5337|   -6.187149|   -8.170517|    0.824244|    0.012001|
|        5338|   -6.190935|   -8.178381|    0.824244|    0.012001|
|        5339|   -6.194462|   -8.186262|    0.824244|    0.012001|
|        5340|   -6.197712|   -8.194151|    0.824244|    0.012001|
|        5341|   -6.200675|   -8.202040|    0.824244|    0.012001|
|        5342|   -6.203352|   -8.209923|    0.824244|    0.012001|
|        5343|   -6.205752|   -8.217797|    0.824244|    0.012001|
|        5344|   -6.207891|   -8.225658|    0.824244|    0.012001|
|        5345|   -6.209794|   -8.233504|    0.824244|    0.012001|
|        5346|   -6.211492|   -8.241336|    0.824245|    0.012001|
|        5347|   -6.213023|   -8.249159|    0.824245|    0.012002|
|        5348|   -6.214428|   -8.256978|    0.824245|    0.012002|
|        5349|   -6.215750|   -8.264795|    0.824245|    0.012002|
|        5350|   -6.217035|   -8.272609|    0.824245|    0.012002|
|        5351|   -6.218329|   -8.280422|    0.824245|    0.012002|
|        5352|   -6.219677|   -8.288237|    0.824245|    0.012002|
|        5353|   -6.221122|   -8.296057|    0.824245|    0.012002|
|        5354|   -6.222704|   -8.303885|    0.824245|    0.012002|
|        5355|   -6.224462|   -8.311725|    0.824245|    0.012002|
|        5356|   -6.226427|   -8.319578|    0.824245|    0.012002|
|        5357|   -6.228630|   -8.327443|    0.824245|    0.012002|
|        5358|   -6.231094|   -8.335320|    0.824245|    0.012002|
|        5359|   -6.233839|   -8.343208|    0.824245|    0.012002|
|        5360|   -6.236881|   -8.351103|    0.824245|    0.012002|
|        5361|   -6.240229|   -8.359003|    0.824245|    0.012002|
|        5362|   -6.243889|   -8.366905|    0.824245|    0.012002|
|        5363|   -6.247860|   -8.374806|    0.824245|    0.012002|
|        5364|   -6.252137|   -8.382703|    0.824245|    0.012002|
|        5365|   -6.256711|   -8.390590|    0.824245|    0.012002|
|        5366|   -6.261566|   -8.398462|    0.824245|    0.012002|
|        5367|   -6.266683|   -8.406312|    0.824245|    0.012002|
|        5368|   -6.272037|   -8.414131|    0.824245|    0.012002|
|        5369|   -6.277598|   -8.421913|    0.824245|    0.012002|
|        5370|   -6.283333|   -8.429648|    0.824245|    0.012002|
|        5371|   -6.289204|   -8.437326|    0.824245|    0.012002|
|        5372|   -6.295170|   -8.444937|    0.824245|    0.012002|
|        5373|   -6.301186|   -8.452471|    0.824245|    0.012002|
|        5374|   -6.307205|   -8.459927|    0.824245|    0.012002|
|        5375|   -6.313179|   -8.467300|    0.824245|    0.012002|
|        5376|   -6.319059|   -8.474591|    0.824245|    0.012002|
|        5377|   -6.324796|   -8.481782|    0.824245|    0.012002|
|        5378|   -6.330343|   -8.488856|    0.824245|    0.012002|
|        5379|   -6.335657|   -8.495805|    0.824245|    0.012001|
|        5380|   -6.340697|   -8.502622|    0.824245|    0.012001|
|        5381|   -6.345429|   -8.509303|    0.824245|    0.012001|
|        5382|   -6.349825|   -8.515846|    0.824245|    0.012001|
|        5383|   -6.353861|   -8.522250|    0.824245|    0.012001|
|        5384|   -6.357524|   -8.528519|    0.824244|    0.012001|
|        5385|   -6.360806|   -8.534673|    0.824244|    0.012001|
|        5386|   -6.363706|   -8.540710|    0.824244|    0.012001|
|        5387|   -6.366231|   -8.546632|    0.824245|    0.012001|
|        5388|   -6.368393|   -8.552438|    0.824245|    0.012001|
|        5389|   -6.370211|   -8.558126|    0.824245|    0.012001|
|        5390|   -6.371707|   -8.563692|    0.824245|    0.012001|
|        5391|   -6.372905|   -8.569132|    0.824245|    0.012000|
|        5392|   -6.373830|   -8.574440|    0.824245|    0.012000|
|        5393|   -6.374510|   -8.579611|    0.824245|    0.012000|
|        5394|   -6.374973|   -8.584636|    0.824245|    0.012000|
|        5395|   -6.375247|   -8.589506|    0.824245|    0.012000|
|        5396|   -6.375355|   -8.594211|    0.824245|    0.012000|
|        5397|   -6.375319|   -8.598740|    0.824245|    0.012000|
|        5398|   -6.375158|   -8.603083|    0.824245|    0.012000|
|        5399|   -6.374891|   -8.607230|    0.824245|    0.012000|
|        5400|   -6.374531|   -8.611170|    0.824245|    0.011999|
|        5401|   -6.374091|   -8.614896|    0.824245|    0.011999|
|        5402|   -6.373582|   -8.618403|    0.824246|    0.011999|
|        5403|   -6.373010|   -8.621687|    0.824246|    0.011999|
|        5404|   -6.372382|   -8.624747|    0.824246|    0.011999|
|        5405|   -6.371703|   -8.627586|    0.824246|    0.011999|
|        5406|   -6.370974|   -8.630207|    0.824246|    0.011999|
|        5407|   -6.370199|   -8.632620|    0.824246|    0.011999|
|        5408|   -6.369380|   -8.634840|    0.824246|    0.011999|
|        5409|   -6.368518|   -8.636882|    0.824246|    0.011999|
|        5410|   -6.367615|   -8.638767|    0.824247|    0.011998|
|        5411|   -6.366674|   -8.640514|    0.824247|    0.011998|
|        5412|   -6.365697|   -8.642147|    0.824247|    0.011998|
|        5413|   -6.364687|   -8.643689|    0.824247|    0.011998|
|        5414|   -6.363647|   -8.645160|    0.824247|    0.011998|
|        5415|   -6.362582|   -8.646581|    0.824247|    0.011998|
|        5416|   -6.361496|   -8.647973|    0.824247|    0.011998|
|        5417|   -6.360394|   -8.649350|    0.824247|    0.011998|
|        5418|   -6.359283|   -8.650727|    0.824247|    0.011998|
|        5419|   -6.358170|   -8.652115|    0.824248|    0.011998|
|        5420|   -6.357063|   -8.653522|    0.824248|    0.011998|
|        5421|   -6.355969|   -8.654951|    0.824248|    0.011998|
|        5422|   -6.354898|   -8.656403|    0.824248|    0.011998|
|        5423|   -6.353860|   -8.657870|    0.824248|    0.011998|
|        5424|   -6.352867|   -8.659349|    0.824248|    0.011998|
|        5425|   -6.351929|   -8.660832|    0.824248|    0.011998|
|        5426|   -6.351059|   -8.662311|    0.824248|    0.011998|
|        5427|   -6.350270|   -8.663773|    0.824248|    0.011997|
|        5428|   -6.349577|   -8.665205|    0.824248|    0.011997|
|        5429|   -6.348993|   -8.666596|    0.824248|    0.011997|
|        5430|   -6.348533|   -8.667932|    0.824248|    0.011997|
|        5431|   -6.348213|   -8.669203|    0.824248|    0.011997|
|        5432|   -6.348047|   -8.670398|    0.824249|    0.011997|
|        5433|   -6.348052|   -8.671509|    0.824249|    0.011997|
|        5434|   -6.348243|   -8.672530|    0.824249|    0.011997|
|        5435|   -6.348635|   -8.673459|    0.824249|    0.011997|
|        5436|   -6.349243|   -8.674294|    0.824249|    0.011997|
|        5437|   -6.350080|   -8.675036|    0.824249|    0.011997|
|        5438|   -6.351161|   -8.675689|    0.824249|    0.011998|
|        5439|   -6.352495|   -8.676260|    0.824249|    0.011998|
|        5440|   -6.354094|   -8.676756|    0.824249|    0.011998|
|        5441|   -6.355966|   -8.677186|    0.824249|    0.011998|
|        5442|   -6.358118|   -8.677561|    0.824249|    0.011998|
|        5443|   -6.360555|   -8.677892|    0.824249|    0.011998|
|        5444|   -6.363278|   -8.678188|    0.824249|    0.011998|
|        5445|   -6.366288|   -8.678461|    0.824249|    0.011998|
|        5446|   -6.369581|   -8.678720|    0.824249|    0.011998|
|        5447|   -6.373151|   -8.678973|    0.824249|    0.011998|
|        5448|   -6.376988|   -8.679226|    0.824249|    0.011998|
|        5449|   -6.381081|   -8.679487|    0.824249|    0.011998|
|        5450|   -6.385412|   -8.679757|    0.824249|    0.011998|
|        5451|   -6.389962|   -8.680041|    0.824249|    0.011998|
|        5452|   -6.394707|   -8.680338|    0.824249|    0.011998|
|        5453|   -6.399621|   -8.680647|    0.824249|    0.011998|
|        5454|   -6.404672|   -8.680967|    0.824249|    0.011998|
|        5455|   -6.409827|   -8.681293|    0.824249|    0.011999|
|        5456|   -6.415047|   -8.681621|    0.824248|    0.011999|
|        5457|   -6.420293|   -8.681946|    0.824248|    0.011999|
|        5458|   -6.425522|   -8.682262|    0.824248|    0.011999|
|        5459|   -6.430688|   -8.682563|    0.824248|    0.011999|
|        5460|   -6.435746|   -8.682843|    0.824248|    0.011999|
|        5461|   -6.440649|   -8.683096|    0.824248|    0.011999|
|        5462|   -6.445352|   -8.683315|    0.824248|    0.011999|
|        5463|   -6.449811|   -8.683497|    0.824248|    0.011999|
|        5464|   -6.453984|   -8.683636|    0.824248|    0.011999|
|        5465|   -6.457833|   -8.683728|    0.824248|    0.011999|
|        5466|   -6.461325|   -8.683772|    0.824248|    0.011999|
|        5467|   -6.464433|   -8.683764|    0.824247|    0.012000|
|        5468|   -6.467136|   -8.683704|    0.824247|    0.012000|
|        5469|   -6.469420|   -8.683592|    0.824247|    0.012000|
|        5470|   -6.471280|   -8.683426|    0.824247|    0.012000|
|        5471|   -6.472716|   -8.683210|    0.824247|    0.012000|
|        5472|   -6.473738|   -8.682944|    0.824247|    0.012000|
|        5473|   -6.474360|   -8.682631|    0.824247|    0.012000|
|        5474|   -6.474604|   -8.682272|    0.824247|    0.012000|
|        5475|   -6.474499|   -8.681872|    0.824246|    0.012000|
|        5476|   -6.474075|   -8.681433|    0.824246|    0.012000|
|        5477|   -6.473368|   -8.680959|    0.824246|    0.012000|
|        5478|   -6.472416|   -8.680453|    0.824246|    0.012000|
|        5479|   -6.471258|   -8.679920|    0.824246|    0.012000|
|        5480|   -6.469935|   -8.679362|    0.824246|    0.012000|
|        5481|   -6.468485|   -8.678785|    0.824245|    0.012000|
|        5482|   -6.466948|   -8.678192|    0.824245|    0.012000|
|        5483|   -6.465361|   -8.677587|    0.824245|    0.012000|
|        5484|   -6.463759|   -8.676975|    0.824245|    0.012000|
|        5485|   -6.462176|   -8.676360|    0.824245|    0.012000|
|        5486|   -6.460642|   -8.675746|    0.824245|    0.012000|
|        5487|   -6.459184|   -8.675138|    0.824245|    0.012000|
|        5488|   -6.457828|   -8.674541|    0.824244|    0.012000|
|        5489|   -6.456596|   -8.673961|    0.824244|    0.012001|
|        5490|   -6.455507|   -8.673403|    0.824244|    0.012001|
|        5491|   -6.454578|   -8.672875|    0.824244|    0.012001|
|        5492|   -6.453823|   -8.672382|    0.824244|    0.012000|
|        5493|   -6.453255|   -8.671934|    0.824244|    0.012000|
|        5494|   -6.452882|   -8.671536|    0.824243|    0.012000|
|        5495|   -6.452713|   -8.671196|    0.824243|    0.012000|
|        5496|   -6.452753|   -8.670921|    0.824243|    0.012000|
|        5497|   -6.453006|   -8.670716|    0.824243|    0.012000|
|        5498|   -6.453475|   -8.670589|    0.824243|    0.012000|
|        5499|   -6.454161|   -8.670547|    0.824243|    0.011986|
+-----------------------------------------------------------------------+
|Fixed CL Mode (Finite Difference)       |Value                         |
+-----------------------------------------------------------------------+
|Delta CL / Delta AoA                    |0.242647                      |
|Delta CD / Delta CL                     |0.0195236                     |
|Delta CMz / Delta CL                    |0.0071373                     |
+-----------------------------------------------------------------------+
Writing Flow Meta-Data file: flow.meta

----------------------------- Solver Exit -------------------------------

Maximum number of iterations reached (ITER = 5500) before convergence.
+-----------------------------------------------------------------------+
|      Convergence Field     |     Value    |   Criterion  |  Converged |
+-----------------------------------------------------------------------+
|                    rms[Rho]|      -6.45416|         < -12|          No|
+-----------------------------------------------------------------------+
-------------------------------------------------------------------------

--------------------------- Finalizing Solver ---------------------------
Deleted CNumerics container.
Deleted CIntegration container.
Deleted CSolver container.
Deleted CIteration container.
Deleted CInterface container.
Deleted CGeometry container.
Deleted CFreeFormDefBox class.
Deleted CSurfaceMovement class.
Deleted CVolumetricMovement class.
Deleted CConfig container.
Deleted nInst container.
Deleted COutput class.
-------------------------------------------------------------------------

------------------------- Exit Success (SU2_CFD) ------------------------


-------------------------------------------------------------------------
|    ___ _   _ ___                                                      |
|   / __| | | |_  )   Release 8.0.0 "Harrier"                           |
|   \__ \ |_| |/ /                                                      |
|   |___/\___//___|   Suite (Solution Exporting Code)                   |
|                                                                       |
-------------------------------------------------------------------------
| SU2 Project Website: https://su2code.github.io                        |
|                                                                       |
| The SU2 Project is maintained by the SU2 Foundation                   |
| (http://su2foundation.org)                                            |
-------------------------------------------------------------------------
| Copyright 2012-2023, SU2 Contributors                                 |
|                                                                       |
| SU2 is free software; you can redistribute it and/or                  |
| modify it under the terms of the GNU Lesser General Public            |
| License as published by the Free Software Foundation; either          |
| version 2.1 of the License, or (at your option) any later version.    |
|                                                                       |
| SU2 is distributed in the hope that it will be useful,                |
| but WITHOUT ANY WARRANTY; without even the implied warranty of        |
| MERCHANTABILITY or FITNESS FOR A PARTICULAR PURPOSE. See the GNU      |
| Lesser General Public License for more details.                       |
|                                                                       |
| You should have received a copy of the GNU Lesser General Public      |
| License along with SU2. If not, see <http://www.gnu.org/licenses/>.   |
-------------------------------------------------------------------------

----------------- Physical Case Definition ( Zone 0 ) -------------------
Input mesh file name: mesh_RAE2822_turb_deform.su2

-------------------- Output Information ( Zone 0 ) ----------------------
The tabular file format is CSV (.csv).
Flow variables file name: flow.

------------- Config File Boundary Information ( Zone 0 ) ---------------
+-----------------------------------------------------------------------+
|                        Marker Type|                        Marker Name|
+-----------------------------------------------------------------------+
|                          Far-field|                           FARFIELD|
+-----------------------------------------------------------------------+
|                     Heat flux wall|                            AIRFOIL|
+-----------------------------------------------------------------------+
Two dimensional problem.
13937 grid points before partitioning.
22842 volume elements before partitioning.
2 surface markers.
192 boundary elements in index 0 (Marker = AIRFOIL).
40 boundary elements in index 1 (Marker = FARFIELD).
Executing the partitioning functions.
Building the graph adjacency structure.
Calling ParMETIS... graph partitioning complete (831 edge cuts).
Distributing ParMETIS coloring.
Rebalancing vertices.
Rebalancing volume element connectivity.
Rebalancing markers and surface elements.
14875 vertices including ghost points. 
23674 interior elements including halo cells. 
18780 triangles.
4894 quadrilaterals.
Establishing MPI communication patterns.
Identify vertices.
Storing a mapping from global to local point index.

------------------------- Solution Postprocessing -----------------------
Reading and storing the solution from restart_flow.
Volume output fields: COORDINATES, SOLUTION
  Info: Ignoring the following screen output fields:
  RMS_DENSITY, RMS_NU_TILDE, LIFT, DRAG
Screen output fields: INNER_ITER
  Info: Ignoring the following history output groups:
  RMS_RES, AERO_COEFF
History output group(s): ITER
Warning: No (valid) fields chosen for convergence monitoring. Convergence monitoring inactive.
Warning: No (valid) fields chosen for time convergence monitoring. Time convergence monitoring inactive.
|Paraview                           |flow.vtu                           |
|Paraview surface                   |surface_flow.vtu                   |
|CSV file                           |surface_flow.csv                   |

------------------------- Finalize Solver -------------------------
Deleted CGeometry container.
Deleted CSolver class.
Deleted CConfig container.
Deleted COutput class.

Completed in 0.016933 seconds on 6 cores.

------------------------- Exit Success (SU2_SOL) ------------------------

