
-------------------------------------------------------------------------
|    ___ _   _ ___                                                      |
|   / __| | | |_  )   Release 8.0.0 "Harrier"                           |
|   \__ \ |_| |/ /                                                      |
|   |___/\___//___|   Suite (Computational Fluid Dynamics Code)         |
|                                                                       |
-------------------------------------------------------------------------
| SU2 Project Website: https://su2code.github.io                        |
|                                                                       |
| The SU2 Project is maintained by the SU2 Foundation                   |
| (http://su2foundation.org)                                            |
-------------------------------------------------------------------------
| Copyright 2012-2023, SU2 Contributors                                 |
|                                                                       |
| SU2 is free software; you can redistribute it and/or                  |
| modify it under the terms of the GNU Lesser General Public            |
| License as published by the Free Software Foundation; either          |
| version 2.1 of the License, or (at your option) any later version.    |
|                                                                       |
| SU2 is distributed in the hope that it will be useful,                |
| but WITHOUT ANY WARRANTY; without even the implied warranty of        |
| MERCHANTABILITY or FITNESS FOR A PARTICULAR PURPOSE. See the GNU      |
| Lesser General Public License for more details.                       |
|                                                                       |
| You should have received a copy of the GNU Lesser General Public      |
| License along with SU2. If not, see <http://www.gnu.org/licenses/>.   |
-------------------------------------------------------------------------

Parsing config file for zone 0

----------------- Physical Case Definition ( Zone 0 ) -------------------
Compressible RANS equations.
Turbulence model: Spalart-Allmaras-noft2
Hybrid RANS/LES: No Hybrid RANS/LES
Mach number: 0.734.
Angle of attack (AoA): 2.31 deg, and angle of sideslip (AoS): 0 deg.
Reynolds number: 6.5e+06. Reference length 1.
Fixed CL mode, target value: 0.824.
Reading and writing binary SU2 native restart files.
Read flow solution from: solution_flow.dat.
Dimensional simulation.
The reference area is 1 m^2.
The semi-span will be computed using the max y(3D) value.
The reference length is 1 m.
Reference origin for moment evaluation is (0.25, 0, 0).
Surface(s) where the force coefficients are evaluated: AIRFOIL.

Surface(s) plotted in the output file: AIRFOIL.
Surface(s) affected by the design variables: AIRFOIL.
Input mesh file name: mesh_RAE2822_turb_deform.su2

--------------- Space Numerical Integration ( Zone 0 ) ------------------
Jameson-Schmidt-Turkel scheme (2nd order in space) for the flow inviscid terms.
JST viscous coefficients (2nd & 4th): 0.5, 0.02.
The method includes a grid stretching correction (p = 0.3).
Scalar upwind solver for the turbulence model.
First order integration in space.
Average of gradients with correction (viscous flow terms).
Average of gradients with correction (viscous turbulence terms).
Gradient for viscous and source terms: inverse-distance weighted Least-Squares.

--------------- Time Numerical Integration  ( Zone 0 ) ------------------
Local time stepping (steady state simulation).
Euler implicit method for the flow equations.
FGMRES is used for solving the linear system.
Using a ILU(0) preconditioning.
Convergence criteria of the linear solver: 1e-06.
Max number of linear iterations: 10.
No CFL adaptation.
Courant-Friedrichs-Lewy number:       10
Euler implicit time integration for the turbulence model.

------------------ Convergence Criteria  ( Zone 0 ) ---------------------
Maximum number of solver subiterations: 5500.
Begin convergence monitoring at iteration 10.
Residual minimum value: 1e-12.
Cauchy series min. value: 1e-06.
Number of Cauchy elements: 100.
Begin windowed time average at iteration 0.

-------------------- Output Information ( Zone 0 ) ----------------------
File writing frequency: 
+------------------------------------+
|                     File| Frequency|
+------------------------------------+
|                  RESTART|     10000|
|                 PARAVIEW|     10000|
|         SURFACE_PARAVIEW|     10000|
|              SURFACE_CSV|     10000|
+------------------------------------+
Writing the convergence history file every 1 inner iterations.
Writing the screen convergence history every 1 inner iterations.
The tabular file format is CSV (.csv).
Convergence history file name: history_direct.
Forces breakdown file name: forces_breakdown.dat.
Surface file name: surface_flow.
Volume file name: flow.
Restart file name: restart_flow.dat.

------------- Config File Boundary Information ( Zone 0 ) ---------------
+-----------------------------------------------------------------------+
|                        Marker Type|                        Marker Name|
+-----------------------------------------------------------------------+
|                          Far-field|                           FARFIELD|
+-----------------------------------------------------------------------+
|                     Heat flux wall|                            AIRFOIL|
+-----------------------------------------------------------------------+

-------------------- Output Preprocessing ( Zone 0 ) --------------------

WARNING: SURFACE_PRESSURE_DROP can only be computed for at least 2 surfaces (outlet, inlet, ...)

Screen output fields: INNER_ITER, RMS_DENSITY, RMS_NU_TILDE, LIFT, DRAG
History output group(s): ITER, RMS_RES, AERO_COEFF
Convergence field(s): RMS_DENSITY
Warning: No (valid) fields chosen for time convergence monitoring. Time convergence monitoring inactive.
Volume output fields: COORDINATES, SOLUTION, PRIMITIVE

------------------- Geometry Preprocessing ( Zone 0 ) -------------------
Two dimensional problem.
13937 grid points before partitioning.
22842 volume elements before partitioning.
2 surface markers.
192 boundary elements in index 0 (Marker = AIRFOIL).
40 boundary elements in index 1 (Marker = FARFIELD).
Executing the partitioning functions.
Building the graph adjacency structure.
Calling ParMETIS... graph partitioning complete (831 edge cuts).
Distributing ParMETIS coloring.
Rebalancing vertices.
Rebalancing volume element connectivity.
Rebalancing markers and surface elements.
14875 vertices including ghost points. 
23674 interior elements including halo cells. 
18780 triangles.
4894 quadrilaterals.
Establishing MPI communication patterns.
Setting point connectivity.
Renumbering points (Reverse Cuthill McKee Ordering).
Recomputing point connectivity.
Setting element connectivity.
Checking the numerical grid orientation.
All volume elements are correctly orientend.
All surface elements are correctly orientend.
Identifying edges and vertices.
Setting the control volume structure.
Area of the computational grid: 32209.9.
Searching for the closest normal neighbors to the surfaces.
Storing a mapping from global to local point index.
Compute the surface curvature.
Max K: 208.19. Mean K: 8.37926. Standard deviation K: 27.3163.
Checking for periodicity.
Computing mesh quality statistics for the dual control volumes.
+--------------------------------------------------------------+
|           Mesh Quality Metric|        Minimum|        Maximum|
+--------------------------------------------------------------+
|    Orthogonality Angle (deg.)|         74.446|        89.9998|
|     CV Face Area Aspect Ratio|        1.00104|        3359.05|
|           CV Sub-Volume Ratio|        1.00066|        1219.91|
+--------------------------------------------------------------+
Finding max control volume width.
Communicating number of neighbors.
Wetted area = 2.02132 m.
Area projection in the x-plane = 0.128058 m, y-plane = 0.995873 m.
Max. coordinate in the x-direction = 1 m, y-direction = 0.0615155 m.
Min. coordinate in the x-direction = 0 m, y-direction = -0.0626575 m.
Computing wall distances.

-------------------- Solver Preprocessing ( Zone 0 ) --------------------
WARNING: AoA in the solution file (2.76558 deg.) +
         AoA offset in mesh file (0 deg.) = 2.76558 deg.
WARNING: SU2 will use the dCD/dCL provided in the direct solution file: 0.0205988.
WARNING: SU2 will use the dCMz/dCL provided in the direct solution file: 0.0157598.
Viscous flow: Computing pressure using the ideal gas law
based on the free-stream temperature and a density computed
from the Reynolds number.
Force coefficients computed using free-stream values.

-- Models:
+------------------------------------------------------------------------------+
|          Viscosity Model|        Conductivity Model|              Fluid Model|
+------------------------------------------------------------------------------+
|               SUTHERLAND|          CONSTANT_PRANDTL|             STANDARD_AIR|
+------------------------------------------------------------------------------+
-- Fluid properties:
+------------------------------------------------------------------------------+
|                  Name|    Dim. value|    Ref. value|      Unit|Non-dim. value|
+------------------------------------------------------------------------------+
|        Ref. Viscosity|     1.716e-05|             1|   N.s/m^2|     1.716e-05|
|      Sutherland Temp.|        273.15|             1|         K|        273.15|
|     Sutherland Const.|         110.4|             1|         K|         110.4|
+------------------------------------------------------------------------------+
|        Prandtl (Lam.)|             -|             -|         -|          0.71|
|       Prandtl (Turb.)|             -|             -|         -|           0.9|
+------------------------------------------------------------------------------+
|          Gas Constant|       287.058|             1|  N.m/kg.K|       287.058|
|      Spec. Heat Ratio|             -|             -|         -|           1.4|
+------------------------------------------------------------------------------+
-- Initial and free-stream conditions:
+------------------------------------------------------------------------------+
|                  Name|    Dim. value|    Ref. value|      Unit|Non-dim. value|
+------------------------------------------------------------------------------+
|       Static Pressure|         38515|             1|        Pa|         38515|
|               Density|      0.465631|             1|    kg/m^3|      0.465631|
|           Temperature|        288.15|             1|         K|        288.15|
|          Total Energy|        237984|             1|   m^2/s^2|        237984|
|            Velocity-X|       249.487|             1|       m/s|       249.487|
|            Velocity-Y|       12.0517|             1|       m/s|       12.0517|
|    Velocity Magnitude|       249.778|             1|       m/s|       249.778|
+------------------------------------------------------------------------------+
|             Viscosity|    1.7893e-05|             1|   N.s/m^2|    1.7893e-05|
|          Conductivity|             -|             1|   W/m^2.K|             -|
|     Turb. Kin. Energy|       233.959|             1|   m^2/s^2|       233.959|
|     Spec. Dissipation|        608834|             1|       1/s|        608834|
+------------------------------------------------------------------------------+
|           Mach Number|             -|             -|         -|         0.734|
|       Reynolds Number|             -|             -|         -|       6.5e+06|
+------------------------------------------------------------------------------+
Initialize Jacobian structure (Navier-Stokes). MG level: 0.
Initialize Jacobian structure (SA model).

------------------- Numerics Preprocessing ( Zone 0 ) -------------------

----------------- Integration Preprocessing ( Zone 0 ) ------------------

------------------- Iteration Preprocessing ( Zone 0 ) ------------------
Euler/Navier-Stokes/RANS fluid iteration.

------------------------------ Begin Solver -----------------------------

Simulation Run using the Single-zone Driver
WARNING: SU2 was not compiled for an AVX-capable architecture. Performance could be better,
         see https://su2code.github.io/docs_v7/Build-SU2-Linux-MacOS/#compiler-optimizations
+----------------------------------------------------------------+
|  Inner_Iter|    rms[Rho]|     rms[nu]|          CL|          CD|
+----------------------------------------------------------------+
|           0|   -8.584255|   -9.995029|    0.824000|    0.011994|
|           1|   -8.640056|  -10.093310|    0.824000|    0.011994|
|           2|   -8.698697|  -10.219937|    0.824000|    0.011994|
|           3|   -8.743087|  -10.373491|    0.824000|    0.011994|
|           4|   -8.773656|  -10.536164|    0.824000|    0.011994|
|           5|   -8.792131|  -10.651159|    0.824000|    0.011994|
|           6|   -8.800461|  -10.672572|    0.824000|    0.011994|
|           7|   -8.801510|  -10.645438|    0.824000|    0.011994|
|           8|   -8.798020|  -10.612490|    0.824000|    0.011994|
|           9|   -8.791760|  -10.579600|    0.824000|    0.011994|
|          10|   -8.783606|  -10.544266|    0.824000|    0.011994|
|          11|   -8.774079|  -10.509030|    0.824000|    0.011994|
|          12|   -8.763697|  -10.480217|    0.824000|    0.011994|
|          13|   -8.753022|  -10.463369|    0.824000|    0.011994|
|          14|   -8.742545|  -10.461404|    0.824000|    0.011994|
|          15|   -8.732620|  -10.474728|    0.824000|    0.011994|
|          16|   -8.723493|  -10.501311|    0.824000|    0.011994|
|          17|   -8.715371|  -10.535901|    0.824000|    0.011994|
|          18|   -8.708475|  -10.568876|    0.824000|    0.011994|
|          19|   -8.703020|  -10.587753|    0.824000|    0.011994|
|          20|   -8.699163|  -10.584715|    0.824000|    0.011994|
|          21|   -8.696940|  -10.563567|    0.824000|    0.011994|
|          22|   -8.696236|  -10.535401|    0.824000|    0.011994|
|          23|   -8.696796|  -10.509898|    0.824000|    0.011994|
|          24|   -8.698281|  -10.492250|    0.824000|    0.011994|
|          25|   -8.700334|  -10.484129|    0.824000|    0.011994|
|          26|   -8.702646|  -10.485087|    0.824000|    0.011994|
|          27|   -8.704983|  -10.493358|    0.824000|    0.011994|
|          28|   -8.707190|  -10.506245|    0.824000|    0.011994|
|          29|   -8.709155|  -10.520452|    0.824000|    0.011994|
|          30|   -8.710769|  -10.532680|    0.824000|    0.011994|
|          31|   -8.711900|  -10.540513|    0.824000|    0.011994|
|          32|   -8.712385|  -10.543196|    0.824000|    0.011994|
|          33|   -8.712059|  -10.541735|    0.824000|    0.011994|
|          34|   -8.710793|  -10.538227|    0.824000|    0.011994|
|          35|   -8.708533|  -10.534966|    0.824000|    0.011994|
|          36|   -8.705326|  -10.533830|    0.824000|    0.011994|
|          37|   -8.701306|  -10.536068|    0.824000|    0.011994|
|          38|   -8.696671|  -10.542330|    0.824000|    0.011994|
|          39|   -8.691641|  -10.552776|    0.824000|    0.011994|
|          40|   -8.686421|  -10.567158|    0.824000|    0.011994|
|          41|   -8.681177|  -10.584861|    0.824000|    0.011994|
|          42|   -8.676029|  -10.604888|    0.824000|    0.011994|
|          43|   -8.671043|  -10.625837|    0.824000|    0.011994|
|          44|   -8.666242|  -10.645914|    0.824000|    0.011994|
|          45|   -8.661609|  -10.663083|    0.824000|    0.011994|
|          46|   -8.657097|  -10.675420|    0.824000|    0.011994|
|          47|   -8.652632|  -10.681620|    0.824000|    0.011994|
|          48|   -8.648124|  -10.681430|    0.824000|    0.011994|
|          49|   -8.643477|  -10.675734|    0.824000|    0.011994|
|          50|   -8.638601|  -10.666208|    0.824000|    0.011994|
|          51|   -8.633428|  -10.654796|    0.824000|    0.011994|
|          52|   -8.627915|  -10.643262|    0.824000|    0.011994|
|          53|   -8.622058|  -10.632974|    0.824000|    0.011994|
|          54|   -8.615887|  -10.624850|    0.824000|    0.011994|
|          55|   -8.609464|  -10.619415|    0.824000|    0.011994|
|          56|   -8.602875|  -10.616876|    0.824000|    0.011994|
|          57|   -8.596213|  -10.617203|    0.824000|    0.011994|
|          58|   -8.589569|  -10.620192|    0.824000|    0.011994|
|          59|   -8.583025|  -10.625514|    0.824000|    0.011994|
|          60|   -8.576644|  -10.632761|    0.824000|    0.011994|
|          61|   -8.570467|  -10.641480|    0.824000|    0.011994|
|          62|   -8.564515|  -10.651203|    0.824000|    0.011994|
|          63|   -8.558792|  -10.661473|    0.824000|    0.011994|
|          64|   -8.553291|  -10.671863|    0.824000|    0.011994|
|          65|   -8.548001|  -10.681991|    0.824000|    0.011994|
|          66|   -8.542907|  -10.691529|    0.824000|    0.011994|
|          67|   -8.538001|  -10.700213|    0.824000|    0.011994|
|          68|   -8.533283|  -10.707848|    0.824000|    0.011994|
|          69|   -8.528759|  -10.714319|    0.824000|    0.011994|
|          70|   -8.524441|  -10.719594|    0.824000|    0.011994|
|          71|   -8.520349|  -10.723720|    0.824000|    0.011994|
|          72|   -8.516500|  -10.726812|    0.824000|    0.011994|
|          73|   -8.512911|  -10.729025|    0.824000|    0.011994|
|          74|   -8.509594|  -10.730524|    0.824000|    0.011994|
|          75|   -8.506552|  -10.731456|    0.824000|    0.011994|
|          76|   -8.503782|  -10.731922|    0.824000|    0.011994|
|          77|   -8.501269|  -10.731968|    0.824000|    0.011994|
|          78|   -8.498994|  -10.731590|    0.824000|    0.011994|
|          79|   -8.496930|  -10.730749|    0.824000|    0.011994|
|          80|   -8.495047|  -10.729401|    0.824000|    0.011994|
|          81|   -8.493315|  -10.727520|    0.824000|    0.011994|
|          82|   -8.491704|  -10.725128|    0.824000|    0.011994|
|          83|   -8.490193|  -10.722307|    0.824000|    0.011994|
|          84|   -8.488763|  -10.719195|    0.824000|    0.011994|
|          85|   -8.487406|  -10.715980|    0.824000|    0.011994|
|          86|   -8.486123|  -10.712873|    0.824000|    0.011994|
|          87|   -8.484922|  -10.710088|    0.824000|    0.011994|
|          88|   -8.483823|  -10.707816|    0.824000|    0.011994|
|          89|   -8.482850|  -10.706215|    0.824000|    0.011994|
|          90|   -8.482036|  -10.705395|    0.824000|    0.011994|
|          91|   -8.481417|  -10.705418|    0.824000|    0.011994|
|          92|   -8.481030|  -10.706301|    0.824000|    0.011994|
|          93|   -8.480914|  -10.708020|    0.824000|    0.011994|
|          94|   -8.481105|  -10.710521|    0.824000|    0.011994|
|          95|   -8.481636|  -10.713725|    0.824000|    0.011994|
|          96|   -8.482535|  -10.717544|    0.824000|    0.011994|
|          97|   -8.483821|  -10.721882|    0.824000|    0.011994|
|          98|   -8.485506|  -10.726644|    0.824000|    0.011994|
|          99|   -8.487589|  -10.731744|    0.824000|    0.011994|
|         100|   -8.490061|  -10.737102|    0.824000|    0.011994|
|         101|   -8.492898|  -10.742653|    0.824000|    0.011994|
|         102|   -8.496062|  -10.748341|    0.824000|    0.011994|
|         103|   -8.499501|  -10.754124|    0.824000|    0.011994|
|         104|   -8.503149|  -10.759970|    0.824000|    0.011994|
|         105|   -8.506928|  -10.765856|    0.824000|    0.011994|
|         106|   -8.510745|  -10.771771|    0.824000|    0.011994|
|         107|   -8.514499|  -10.777709|    0.824000|    0.011994|
|         108|   -8.518082|  -10.783667|    0.824000|    0.011994|
|         109|   -8.521384|  -10.789648|    0.824000|    0.011994|
|         110|   -8.524298|  -10.795655|    0.824000|    0.011994|
|         111|   -8.526726|  -10.801688|    0.824000|    0.011994|
|         112|   -8.528585|  -10.807743|    0.824000|    0.011994|
|         113|   -8.529814|  -10.813812|    0.824000|    0.011994|
|         114|   -8.530375|  -10.819880|    0.824000|    0.011994|
|         115|   -8.530259|  -10.825926|    0.824000|    0.011994|
|         116|   -8.529486|  -10.831923|    0.824000|    0.011994|
|         117|   -8.528102|  -10.837840|    0.824000|    0.011994|
|         118|   -8.526178|  -10.843648|    0.824000|    0.011994|
|         119|   -8.523802|  -10.849318|    0.824000|    0.011994|
|         120|   -8.521075|  -10.854829|    0.824000|    0.011994|
|         121|   -8.518104|  -10.860166|    0.824000|    0.011994|
|         122|   -8.514996|  -10.865331|    0.824000|    0.011994|
|         123|   -8.511851|  -10.870335|    0.824000|    0.011994|
|         124|   -8.508758|  -10.875204|    0.824000|    0.011994|
|         125|   -8.505793|  -10.879978|    0.824000|    0.011994|
|         126|   -8.503014|  -10.884703|    0.824000|    0.011994|
|         127|   -8.500460|  -10.889436|    0.824000|    0.011994|
|         128|   -8.498155|  -10.894232|    0.824000|    0.011994|
|         129|   -8.496100|  -10.899145|    0.824000|    0.011994|
|         130|   -8.494285|  -10.904223|    0.824000|    0.011994|
|         131|   -8.492681|  -10.909499|    0.824000|    0.011994|
|         132|   -8.491249|  -10.914995|    0.824000|    0.011994|
|         133|   -8.489942|  -10.920715|    0.824000|    0.011994|
|         134|   -8.488705|  -10.926643|    0.824000|    0.011994|
|         135|   -8.487485|  -10.932744|    0.824000|    0.011994|
|         136|   -8.486226|  -10.938967|    0.824000|    0.011994|
|         137|   -8.484881|  -10.945242|    0.824000|    0.011994|
|         138|   -8.483409|  -10.951489|    0.824000|    0.011994|
|         139|   -8.481776|  -10.957618|    0.824000|    0.011994|
|         140|   -8.479963|  -10.963535|    0.824000|    0.011994|
|         141|   -8.477957|  -10.969150|    0.824000|    0.011994|
|         142|   -8.475759|  -10.974382|    0.824000|    0.011994|
|         143|   -8.473377|  -10.979166|    0.824000|    0.011994|
|         144|   -8.470827|  -10.983455|    0.824000|    0.011994|
|         145|   -8.468131|  -10.987229|    0.824000|    0.011994|
|         146|   -8.465313|  -10.990490|    0.824000|    0.011994|
|         147|   -8.462400|  -10.993267|    0.824000|    0.011994|
|         148|   -8.459418|  -10.995611|    0.824000|    0.011994|
|         149|   -8.456392|  -10.997590|    0.824000|    0.011994|
|         150|   -8.453346|  -10.999285|    0.824000|    0.011994|
|         151|   -8.450301|  -11.000780|    0.824000|    0.011994|
|         152|   -8.447275|  -11.002160|    0.824000|    0.011994|
|         153|   -8.444286|  -11.003502|    0.824000|    0.011994|
|         154|   -8.441348|  -11.004872|    0.824000|    0.011994|
|         155|   -8.438475|  -11.006320|    0.824000|    0.011994|
|         156|   -8.435681|  -11.007876|    0.824000|    0.011994|
|         157|   -8.432978|  -11.009553|    0.824000|    0.011994|
|         158|   -8.430378|  -11.011341|    0.824000|    0.011994|
|         159|   -8.427895|  -11.013215|    0.824000|    0.011994|
|         160|   -8.425539|  -11.015132|    0.824000|    0.011994|
|         161|   -8.423324|  -11.017039|    0.824000|    0.011994|
|         162|   -8.421261|  -11.018874|    0.824000|    0.011994|
|         163|   -8.419360|  -11.020576|    0.824000|    0.011994|
|         164|   -8.417629|  -11.022087|    0.824000|    0.011994|
|         165|   -8.416077|  -11.023358|    0.824000|    0.011994|
|         166|   -8.414708|  -11.024355|    0.824000|    0.011994|
|         167|   -8.413524|  -11.025065|    0.824000|    0.011994|
|         168|   -8.412522|  -11.025491|    0.824000|    0.011994|
|         169|   -8.411700|  -11.025661|    0.824000|    0.011994|
|         170|   -8.411050|  -11.025620|    0.824000|    0.011994|
|         171|   -8.410562|  -11.025430|    0.824000|    0.011994|
|         172|   -8.410224|  -11.025163|    0.824000|    0.011994|
|         173|   -8.410021|  -11.024900|    0.824000|    0.011994|
|         174|   -8.409939|  -11.024724|    0.824000|    0.011994|
|         175|   -8.409962|  -11.024712|    0.824000|    0.011994|
|         176|   -8.410076|  -11.024936|    0.824000|    0.011994|
|         177|   -8.410269|  -11.025458|    0.824000|    0.011994|
|         178|   -8.410531|  -11.026326|    0.824000|    0.011994|
|         179|   -8.410858|  -11.027573|    0.824000|    0.011994|
|         180|   -8.411249|  -11.029216|    0.824000|    0.011994|
|         181|   -8.411707|  -11.031259|    0.824000|    0.011994|
|         182|   -8.412244|  -11.033688|    0.824000|    0.011994|
|         183|   -8.412873|  -11.036477|    0.824000|    0.011994|
|         184|   -8.413615|  -11.039588|    0.824000|    0.011994|
|         185|   -8.414495|  -11.042971|    0.824000|    0.011994|
|         186|   -8.415538|  -11.046572|    0.824000|    0.011994|
|         187|   -8.416773|  -11.050328|    0.824000|    0.011994|
|         188|   -8.418230|  -11.054177|    0.824000|    0.011994|
|         189|   -8.419936|  -11.058057|    0.824000|    0.011994|
|         190|   -8.421917|  -11.061910|    0.824000|    0.011994|
|         191|   -8.424191|  -11.065685|    0.824000|    0.011994|
|         192|   -8.426775|  -11.069343|    0.824000|    0.011994|
|         193|   -8.429674|  -11.072853|    0.824000|    0.011994|
|         194|   -8.432886|  -11.076200|    0.824000|    0.011994|
|         195|   -8.436398|  -11.079380|    0.824000|    0.011994|
|         196|   -8.440187|  -11.082403|    0.824000|    0.011994|
|         197|   -8.444219|  -11.085290|    0.824000|    0.011994|
|         198|   -8.448449|  -11.088075|    0.824000|    0.011994|
|         199|   -8.452818|  -11.090799|    0.824000|    0.011994|
|         200|   -8.457260|  -11.093506|    0.824000|    0.011994|
|         201|   -8.461701|  -11.096248|    0.824000|    0.011994|
|         202|   -8.466061|  -11.099074|    0.824000|    0.011994|
|         203|   -8.470256|  -11.102033|    0.824000|    0.011994|
|         204|   -8.474205|  -11.105170|    0.824000|    0.011994|
|         205|   -8.477835|  -11.108524|    0.824000|    0.011994|
|         206|   -8.481078|  -11.112126|    0.824000|    0.011994|
|         207|   -8.483886|  -11.115999|    0.824000|    0.011994|
|         208|   -8.486229|  -11.120154|    0.824000|    0.011994|
|         209|   -8.488095|  -11.124592|    0.824000|    0.011994|
|         210|   -8.489499|  -11.129305|    0.824000|    0.011994|
|         211|   -8.490478|  -11.134269|    0.824000|    0.011994|
|         212|   -8.491089|  -11.139451|    0.824000|    0.011994|
|         213|   -8.491410|  -11.144806|    0.824000|    0.011994|
|         214|   -8.491532|  -11.150279|    0.824000|    0.011994|
|         215|   -8.491560|  -11.155805|    0.824000|    0.011994|
|         216|   -8.491604|  -11.161312|    0.824000|    0.011994|
|         217|   -8.491775|  -11.166724|    0.824000|    0.011994|
|         218|   -8.492185|  -11.171965|    0.824000|    0.011994|
|         219|   -8.492942|  -11.176958|    0.824000|    0.011994|
|         220|   -8.494146|  -11.181634|    0.824000|    0.011994|
|         221|   -8.495889|  -11.185934|    0.824000|    0.011994|
|         222|   -8.498254|  -11.189812|    0.824000|    0.011994|
|         223|   -8.501314|  -11.193238|    0.824000|    0.011994|
|         224|   -8.505130|  -11.196201|    0.824000|    0.011994|
|         225|   -8.509754|  -11.198709|    0.824000|    0.011994|
|         226|   -8.515226|  -11.200791|    0.824000|    0.011994|
|         227|   -8.521574|  -11.202492|    0.824000|    0.011994|
|         228|   -8.528820|  -11.203872|    0.824000|    0.011994|
|         229|   -8.536970|  -11.205004|    0.824000|    0.011994|
|         230|   -8.546022|  -11.205968|    0.824000|    0.011994|
|         231|   -8.555962|  -11.206848|    0.824000|    0.011994|
|         232|   -8.566759|  -11.207728|    0.824000|    0.011994|
|         233|   -8.578377|  -11.208691|    0.824000|    0.011994|
|         234|   -8.590761|  -11.209811|    0.824000|    0.011994|
|         235|   -8.603841|  -11.211156|    0.824000|    0.011994|
|         236|   -8.617531|  -11.212782|    0.824000|    0.011994|
|         237|   -8.631728|  -11.214734|    0.824000|    0.011994|
|         238|   -8.646313|  -11.217046|    0.824000|    0.011994|
|         239|   -8.661145|  -11.219737|    0.824000|    0.011994|
|         240|   -8.676067|  -11.222813|    0.824000|    0.011994|
|         241|   -8.690906|  -11.226268|    0.824000|    0.011994|
|         242|   -8.705478|  -11.230082|    0.824000|    0.011994|
|         243|   -8.719588|  -11.234224|    0.824000|    0.011994|
|         244|   -8.733042|  -11.238649|    0.824000|    0.011994|
|         245|   -8.745654|  -11.243305|    0.824000|    0.011994|
|         246|   -8.757255|  -11.248127|    0.824000|    0.011994|
|         247|   -8.767701|  -11.253048|    0.824000|    0.011994|
|         248|   -8.776884|  -11.257992|    0.824000|    0.011994|
|         249|   -8.784743|  -11.262884|    0.824000|    0.011994|
|         250|   -8.791258|  -11.267649|    0.824000|    0.011994|
|         251|   -8.796453|  -11.272219|    0.824000|    0.011994|
|         252|   -8.800398|  -11.276532|    0.824000|    0.011994|
|         253|   -8.803195|  -11.280539|    0.824000|    0.011994|
|         254|   -8.804971|  -11.284203|    0.824000|    0.011994|
|         255|   -8.805871|  -11.287504|    0.824000|    0.011994|
|         256|   -8.806046|  -11.290439|    0.824000|    0.011994|
|         257|   -8.805647|  -11.293018|    0.824000|    0.011994|
|         258|   -8.804819|  -11.295268|    0.824000|    0.011994|
|         259|   -8.803695|  -11.297228|    0.824000|    0.011994|
|         260|   -8.802396|  -11.298945|    0.824000|    0.011994|
|         261|   -8.801029|  -11.300470|    0.824000|    0.011994|
|         262|   -8.799685|  -11.301856|    0.824000|    0.011994|
|         263|   -8.798443|  -11.303156|    0.824000|    0.011994|
|         264|   -8.797369|  -11.304414|    0.824000|    0.011994|
|         265|   -8.796517|  -11.305664|    0.824000|    0.011994|
|         266|   -8.795930|  -11.306933|    0.824000|    0.011994|
|         267|   -8.795643|  -11.308231|    0.824000|    0.011994|
|         268|   -8.795686|  -11.309555|    0.824000|    0.011994|
|         269|   -8.796080|  -11.310891|    0.824000|    0.011994|
|         270|   -8.796841|  -11.312208|    0.824000|    0.011994|
|         271|   -8.797981|  -11.313466|    0.824000|    0.011994|
|         272|   -8.799507|  -11.314613|    0.824000|    0.011994|
|         273|   -8.801424|  -11.315594|    0.824000|    0.011994|
|         274|   -8.803734|  -11.316349|    0.824000|    0.011994|
|         275|   -8.806435|  -11.316821|    0.824000|    0.011994|
|         276|   -8.809525|  -11.316957|    0.824000|    0.011994|
|         277|   -8.812997|  -11.316717|    0.824000|    0.011994|
|         278|   -8.816842|  -11.316073|    0.824000|    0.011994|
|         279|   -8.821050|  -11.315013|    0.824000|    0.011994|
|         280|   -8.825608|  -11.313545|    0.824000|    0.011994|
|         281|   -8.830501|  -11.311693|    0.824000|    0.011994|
|         282|   -8.835709|  -11.309501|    0.824000|    0.011994|
|         283|   -8.841213|  -11.307028|    0.824000|    0.011994|
|         284|   -8.846989|  -11.304344|    0.824000|    0.011994|
|         285|   -8.853012|  -11.301530|    0.824000|    0.011994|
|         286|   -8.859251|  -11.298673|    0.824000|    0.011994|
|         287|   -8.865677|  -11.295858|    0.824000|    0.011994|
|         288|   -8.872257|  -11.293172|    0.824000|    0.011994|
|         289|   -8.878953|  -11.290695|    0.824000|    0.011994|
|         290|   -8.885733|  -11.288502|    0.824000|    0.011994|
|         291|   -8.892559|  -11.286658|    0.824000|    0.011994|
|         292|   -8.899393|  -11.285220|    0.824000|    0.011994|
|         293|   -8.906202|  -11.284234|    0.824000|    0.011994|
|         294|   -8.912947|  -11.283735|    0.824000|    0.011994|
|         295|   -8.919597|  -11.283750|    0.824000|    0.011994|
|         296|   -8.926121|  -11.284293|    0.824000|    0.011994|
|         297|   -8.932495|  -11.285370|    0.824000|    0.011994|
|         298|   -8.938692|  -11.286980|    0.824000|    0.011994|
|         299|   -8.944695|  -11.289112|    0.824000|    0.011994|
|         300|   -8.950487|  -11.291748|    0.824000|    0.011994|
|         301|   -8.956056|  -11.294863|    0.824000|    0.011994|
|         302|   -8.961393|  -11.298428|    0.824000|    0.011994|
|         303|   -8.966489|  -11.302409|    0.824000|    0.011994|
|         304|   -8.971345|  -11.306769|    0.824000|    0.011994|
|         305|   -8.975954|  -11.311467|    0.824000|    0.011994|
|         306|   -8.980316|  -11.316462|    0.824000|    0.011994|
|         307|   -8.984429|  -11.321712|    0.824000|    0.011994|
|         308|   -8.988290|  -11.327177|    0.824000|    0.011994|
|         309|   -8.991896|  -11.332819|    0.824000|    0.011994|
|         310|   -8.995241|  -11.338600|    0.824000|    0.011994|
|         311|   -8.998322|  -11.344488|    0.824000|    0.011994|
|         312|   -9.001128|  -11.350457|    0.824000|    0.011994|
|         313|   -9.003654|  -11.356483|    0.824000|    0.011994|
|         314|   -9.005889|  -11.362550|    0.824000|    0.011994|
|         315|   -9.007824|  -11.368645|    0.824000|    0.011994|
|         316|   -9.009453|  -11.374762|    0.824000|    0.011994|
|         317|   -9.010766|  -11.380903|    0.824000|    0.011994|
|         318|   -9.011757|  -11.387071|    0.824000|    0.011994|
|         319|   -9.012425|  -11.393275|    0.824000|    0.011994|
|         320|   -9.012770|  -11.399530|    0.824000|    0.011994|
|         321|   -9.012796|  -11.405852|    0.824000|    0.011994|
|         322|   -9.012510|  -11.412259|    0.824000|    0.011994|
|         323|   -9.011924|  -11.418772|    0.824000|    0.011994|
|         324|   -9.011054|  -11.425412|    0.824000|    0.011994|
|         325|   -9.009921|  -11.432200|    0.824000|    0.011994|
|         326|   -9.008548|  -11.439156|    0.824000|    0.011994|
|         327|   -9.006962|  -11.446297|    0.824000|    0.011994|
|         328|   -9.005190|  -11.453639|    0.824000|    0.011994|
|         329|   -9.003266|  -11.461194|    0.824000|    0.011994|
|         330|   -9.001222|  -11.468968|    0.824000|    0.011994|
|         331|   -8.999092|  -11.476965|    0.824000|    0.011994|
|         332|   -8.996910|  -11.485182|    0.824000|    0.011994|
|         333|   -8.994709|  -11.493609|    0.824000|    0.011994|
|         334|   -8.992523|  -11.502230|    0.824000|    0.011994|
|         335|   -8.990385|  -11.511020|    0.824000|    0.011994|
|         336|   -8.988324|  -11.519949|    0.824000|    0.011994|
|         337|   -8.986371|  -11.528976|    0.824000|    0.011994|
|         338|   -8.984552|  -11.538052|    0.824000|    0.011994|
|         339|   -8.982895|  -11.547122|    0.824000|    0.011994|
|         340|   -8.981425|  -11.556122|    0.824000|    0.011994|
|         341|   -8.980162|  -11.564982|    0.824000|    0.011994|
|         342|   -8.979128|  -11.573627|    0.824000|    0.011994|
|         343|   -8.978342|  -11.581981|    0.824000|    0.011994|
|         344|   -8.977823|  -11.589965|    0.824000|    0.011994|
|         345|   -8.977583|  -11.597506|    0.824000|    0.011994|
|         346|   -8.977639|  -11.604535|    0.824000|    0.011994|
|         347|   -8.978002|  -11.610993|    0.824000|    0.011994|
|         348|   -8.978685|  -11.616836|    0.824000|    0.011994|
|         349|   -8.979697|  -11.622031|    0.824000|    0.011994|
|         350|   -8.981048|  -11.626564|    0.824000|    0.011994|
|         351|   -8.982744|  -11.630441|    0.824000|    0.011994|
|         352|   -8.984791|  -11.633681|    0.824000|    0.011994|
|         353|   -8.987194|  -11.636322|    0.824000|    0.011994|
|         354|   -8.989955|  -11.638417|    0.824000|    0.011994|
|         355|   -8.993076|  -11.640028|    0.824000|    0.011994|
|         356|   -8.996553|  -11.641226|    0.824000|    0.011994|
|         357|   -9.000386|  -11.642088|    0.824000|    0.011994|
|         358|   -9.004568|  -11.642690|    0.824000|    0.011994|
|         359|   -9.009093|  -11.643108|    0.824000|    0.011994|
|         360|   -9.013947|  -11.643413|    0.824000|    0.011994|
|         361|   -9.019121|  -11.643672|    0.824000|    0.011994|
|         362|   -9.024597|  -11.643942|    0.824000|    0.011994|
|         363|   -9.030351|  -11.644272|    0.824000|    0.011994|
|         364|   -9.036361|  -11.644703|    0.824000|    0.011994|
|         365|   -9.042597|  -11.645266|    0.824000|    0.011994|
|         366|   -9.049029|  -11.645982|    0.824000|    0.011994|
|         367|   -9.055618|  -11.646863|    0.824000|    0.011994|
|         368|   -9.062321|  -11.647913|    0.824000|    0.011994|
|         369|   -9.069095|  -11.649128|    0.824000|    0.011994|
|         370|   -9.075889|  -11.650495|    0.824000|    0.011994|
|         371|   -9.082649|  -11.651997|    0.824000|    0.011994|
|         372|   -9.089318|  -11.653609|    0.824000|    0.011994|
|         373|   -9.095837|  -11.655301|    0.824000|    0.011994|
|         374|   -9.102149|  -11.657039|    0.824000|    0.011994|
|         375|   -9.108192|  -11.658787|    0.824000|    0.011994|
|         376|   -9.113912|  -11.660505|    0.824000|    0.011994|
|         377|   -9.119252|  -11.662155|    0.824000|    0.011994|
|         378|   -9.124169|  -11.663696|    0.824000|    0.011994|
|         379|   -9.128620|  -11.665091|    0.824000|    0.011994|
|         380|   -9.132571|  -11.666303|    0.824000|    0.011994|
|         381|   -9.136003|  -11.667300|    0.824000|    0.011994|
|         382|   -9.138901|  -11.668054|    0.824000|    0.011994|
|         383|   -9.141265|  -11.668542|    0.824000|    0.011994|
|         384|   -9.143103|  -11.668748|    0.824000|    0.011994|
|         385|   -9.144441|  -11.668660|    0.824000|    0.011994|
|         386|   -9.145303|  -11.668273|    0.824000|    0.011994|
|         387|   -9.145726|  -11.667589|    0.824000|    0.011994|
|         388|   -9.145752|  -11.666615|    0.824000|    0.011994|
|         389|   -9.145430|  -11.665361|    0.824000|    0.011994|
|         390|   -9.144811|  -11.663846|    0.824000|    0.011994|
|         391|   -9.143944|  -11.662090|    0.824000|    0.011994|
|         392|   -9.142878|  -11.660113|    0.824000|    0.011994|
|         393|   -9.141666|  -11.657943|    0.824000|    0.011994|
|         394|   -9.140349|  -11.655603|    0.824000|    0.011994|
|         395|   -9.138972|  -11.653119|    0.824000|    0.011994|
|         396|   -9.137573|  -11.650515|    0.824000|    0.011994|
|         397|   -9.136185|  -11.647815|    0.824000|    0.011994|
|         398|   -9.134841|  -11.645040|    0.824000|    0.011994|
|         399|   -9.133562|  -11.642209|    0.824000|    0.011994|
|         400|   -9.132371|  -11.639337|    0.824000|    0.011994|
|         401|   -9.131284|  -11.636439|    0.824000|    0.011994|
|         402|   -9.130315|  -11.633526|    0.824000|    0.011994|
|         403|   -9.129478|  -11.630606|    0.824000|    0.011994|
|         404|   -9.128776|  -11.627687|    0.824000|    0.011994|
|         405|   -9.128217|  -11.624773|    0.824000|    0.011994|
|         406|   -9.127806|  -11.621868|    0.824000|    0.011994|
|         407|   -9.127546|  -11.618974|    0.824000|    0.011994|
|         408|   -9.127436|  -11.616092|    0.824000|    0.011994|
|         409|   -9.127480|  -11.613226|    0.824000|    0.011994|
|         410|   -9.127681|  -11.610377|    0.824000|    0.011994|
|         411|   -9.128037|  -11.607549|    0.824000|    0.011994|
|         412|   -9.128552|  -11.604745|    0.824000|    0.011994|
|         413|   -9.129228|  -11.601972|    0.824000|    0.011994|
|         414|   -9.130069|  -11.599237|    0.824000|    0.011994|
|         415|   -9.131074|  -11.596550|    0.824000|    0.011994|
|         416|   -9.132250|  -11.593922|    0.824000|    0.011994|
|         417|   -9.133599|  -11.591365|    0.824000|    0.011994|
|         418|   -9.135130|  -11.588895|    0.824000|    0.011994|
|         419|   -9.136844|  -11.586526|    0.824000|    0.011994|
|         420|   -9.138746|  -11.584277|    0.824000|    0.011994|
|         421|   -9.140840|  -11.582165|    0.824000|    0.011994|
|         422|   -9.143130|  -11.580209|    0.824000|    0.011994|
|         423|   -9.145613|  -11.578427|    0.824000|    0.011994|
|         424|   -9.148297|  -11.576838|    0.824000|    0.011994|
|         425|   -9.151179|  -11.575460|    0.824000|    0.011994|
|         426|   -9.154253|  -11.574310|    0.824000|    0.011994|
|         427|   -9.157515|  -11.573404|    0.824000|    0.011994|
|         428|   -9.160959|  -11.572756|    0.824000|    0.011994|
|         429|   -9.164574|  -11.572379|    0.824000|    0.011994|
|         430|   -9.168342|  -11.572285|    0.824000|    0.011994|
|         431|   -9.172249|  -11.572483|    0.824000|    0.011994|
|         432|   -9.176277|  -11.572978|    0.824000|    0.011994|
|         433|   -9.180394|  -11.573777|    0.824000|    0.011994|
|         434|   -9.184578|  -11.574882|    0.824000|    0.011994|
|         435|   -9.188797|  -11.576292|    0.824000|    0.011994|
|         436|   -9.193016|  -11.578005|    0.824000|    0.011994|
|         437|   -9.197195|  -11.580017|    0.824000|    0.011994|
|         438|   -9.201298|  -11.582320|    0.824000|    0.011994|
|         439|   -9.205278|  -11.584905|    0.824000|    0.011994|
|         440|   -9.209102|  -11.587760|    0.824000|    0.011994|
|         441|   -9.212723|  -11.590870|    0.824000|    0.011994|
|         442|   -9.216102|  -11.594219|    0.824000|    0.011994|
|         443|   -9.219199|  -11.597788|    0.824000|    0.011994|
|         444|   -9.221980|  -11.601558|    0.824000|    0.011994|
|         445|   -9.224418|  -11.605504|    0.824000|    0.011994|
|         446|   -9.226487|  -11.609604|    0.824000|    0.011994|
|         447|   -9.228168|  -11.613830|    0.824000|    0.011994|
|         448|   -9.229453|  -11.618156|    0.824000|    0.011994|
|         449|   -9.230337|  -11.622554|    0.824000|    0.011994|
|         450|   -9.230826|  -11.626994|    0.824000|    0.011994|
|         451|   -9.230935|  -11.631448|    0.824000|    0.011994|
|         452|   -9.230681|  -11.635885|    0.824000|    0.011994|
|         453|   -9.230094|  -11.640278|    0.824000|    0.011994|
|         454|   -9.229205|  -11.644599|    0.824000|    0.011994|
|         455|   -9.228050|  -11.648820|    0.824000|    0.011994|
|         456|   -9.226672|  -11.652918|    0.824000|    0.011994|
|         457|   -9.225113|  -11.656869|    0.824000|    0.011994|
|         458|   -9.223417|  -11.660655|    0.824000|    0.011994|
|         459|   -9.221629|  -11.664258|    0.824000|    0.011994|
|         460|   -9.219796|  -11.667664|    0.824000|    0.011994|
|         461|   -9.217959|  -11.670865|    0.824000|    0.011994|
|         462|   -9.216158|  -11.673853|    0.824000|    0.011994|
|         463|   -9.214436|  -11.676626|    0.824000|    0.011994|
|         464|   -9.212828|  -11.679184|    0.824000|    0.011994|
|         465|   -9.211369|  -11.681532|    0.824000|    0.011994|
|         466|   -9.210089|  -11.683677|    0.824000|    0.011994|
|         467|   -9.209017|  -11.685630|    0.824000|    0.011994|
|         468|   -9.208176|  -11.687404|    0.824000|    0.011994|
|         469|   -9.207591|  -11.689013|    0.824000|    0.011994|
|         470|   -9.207278|  -11.690474|    0.824000|    0.011994|
|         471|   -9.207255|  -11.691806|    0.824000|    0.011994|
|         472|   -9.207534|  -11.693027|    0.824000|    0.011994|
|         473|   -9.208130|  -11.694157|    0.824000|    0.011994|
|         474|   -9.209046|  -11.695217|    0.824000|    0.011994|
|         475|   -9.210290|  -11.696226|    0.824000|    0.011994|
|         476|   -9.211869|  -11.697202|    0.824000|    0.011994|
|         477|   -9.213779|  -11.698166|    0.824000|    0.011994|
|         478|   -9.216021|  -11.699135|    0.824000|    0.011994|
|         479|   -9.218587|  -11.700127|    0.824000|    0.011994|
|         480|   -9.221478|  -11.701156|    0.824000|    0.011994|
|         481|   -9.224679|  -11.702239|    0.824000|    0.011994|
|         482|   -9.228180|  -11.703388|    0.824000|    0.011994|
|         483|   -9.231969|  -11.704615|    0.824000|    0.011994|
|         484|   -9.236026|  -11.705932|    0.824000|    0.011994|
|         485|   -9.240330|  -11.707347|    0.824000|    0.011994|
|         486|   -9.244856|  -11.708868|    0.824000|    0.011994|
|         487|   -9.249580|  -11.710502|    0.824000|    0.011994|
|         488|   -9.254473|  -11.712253|    0.824000|    0.011994|
|         489|   -9.259497|  -11.714123|    0.824000|    0.011994|
|         490|   -9.264618|  -11.716115|    0.824000|    0.011994|
|         491|   -9.269793|  -11.718229|    0.824000|    0.011994|
|         492|   -9.274985|  -11.720461|    0.824000|    0.011994|
|         493|   -9.280147|  -11.722810|    0.824000|    0.011994|
|         494|   -9.285233|  -11.725268|    0.824000|    0.011994|
|         495|   -9.290194|  -11.727831|    0.824000|    0.011994|
|         496|   -9.294984|  -11.730489|    0.824000|    0.011994|
|         497|   -9.299550|  -11.733231|    0.824000|    0.011994|
|         498|   -9.303854|  -11.736047|    0.824000|    0.011994|
|         499|   -9.307848|  -11.738923|    0.824000|    0.011994|
|         500|   -9.311493|  -11.741845|    0.824000|    0.011994|
|         501|   -9.314755|  -11.744796|    0.824000|    0.011994|
|         502|   -9.317612|  -11.747762|    0.824000|    0.011994|
|         503|   -9.320040|  -11.750723|    0.824000|    0.011994|
|         504|   -9.322026|  -11.753662|    0.824000|    0.011994|
|         505|   -9.323569|  -11.756560|    0.824000|    0.011994|
|         506|   -9.324669|  -11.759399|    0.824000|    0.011994|
|         507|   -9.325342|  -11.762159|    0.824000|    0.011994|
|         508|   -9.325605|  -11.764824|    0.824000|    0.011994|
|         509|   -9.325486|  -11.767374|    0.824000|    0.011994|
|         510|   -9.325015|  -11.769795|    0.824000|    0.011994|
|         511|   -9.324232|  -11.772072|    0.824000|    0.011994|
|         512|   -9.323180|  -11.774189|    0.824000|    0.011994|
|         513|   -9.321899|  -11.776135|    0.824000|    0.011994|
|         514|   -9.320435|  -11.777901|    0.824000|    0.011994|
|         515|   -9.318838|  -11.779477|    0.824000|    0.011994|
|         516|   -9.317147|  -11.780858|    0.824000|    0.011994|
|         517|   -9.315410|  -11.782039|    0.824000|    0.011994|
|         518|   -9.313666|  -11.783018|    0.824000|    0.011994|
|         519|   -9.311959|  -11.783796|    0.824000|    0.011994|
|         520|   -9.310321|  -11.784374|    0.824000|    0.011994|
|         521|   -9.308794|  -11.784756|    0.824000|    0.011994|
|         522|   -9.307404|  -11.784946|    0.824000|    0.011994|
|         523|   -9.306178|  -11.784953|    0.824000|    0.011994|
|         524|   -9.305147|  -11.784783|    0.824000|    0.011994|
|         525|   -9.304330|  -11.784447|    0.824000|    0.011994|
|         526|   -9.303748|  -11.783955|    0.824000|    0.011994|
|         527|   -9.303419|  -11.783319|    0.824000|    0.011994|
|         528|   -9.303355|  -11.782549|    0.824000|    0.011994|
|         529|   -9.303571|  -11.781660|    0.824000|    0.011994|
|         530|   -9.304076|  -11.780665|    0.824000|    0.011994|
|         531|   -9.304876|  -11.779578|    0.824000|    0.011994|
|         532|   -9.305981|  -11.778412|    0.824000|    0.011994|
|         533|   -9.307385|  -11.777184|    0.824000|    0.011994|
|         534|   -9.309100|  -11.775906|    0.824000|    0.011994|
|         535|   -9.311119|  -11.774595|    0.824000|    0.011994|
|         536|   -9.313441|  -11.773265|    0.824000|    0.011994|
|         537|   -9.316064|  -11.771932|    0.824000|    0.011994|
|         538|   -9.318975|  -11.770610|    0.824000|    0.011994|
|         539|   -9.322165|  -11.769314|    0.824000|    0.011994|
|         540|   -9.325627|  -11.768058|    0.824000|    0.011994|
|         541|   -9.329340|  -11.766857|    0.824000|    0.011994|
|         542|   -9.333289|  -11.765724|    0.824000|    0.011994|
|         543|   -9.337455|  -11.764672|    0.824000|    0.011994|
|         544|   -9.341816|  -11.763714|    0.824000|    0.011994|
|         545|   -9.346342|  -11.762862|    0.824000|    0.011994|
|         546|   -9.351007|  -11.762125|    0.824000|    0.011994|
|         547|   -9.355775|  -11.761515|    0.824000|    0.011994|
|         548|   -9.360617|  -11.761040|    0.824000|    0.011994|
|         549|   -9.365490|  -11.760707|    0.824000|    0.011994|
|         550|   -9.370354|  -11.760524|    0.824000|    0.011994|
|         551|   -9.375170|  -11.760497|    0.824000|    0.011994|
|         552|   -9.379888|  -11.760628|    0.824000|    0.011994|
|         553|   -9.384469|  -11.760923|    0.824000|    0.011994|
|         554|   -9.388861|  -11.761382|    0.824000|    0.011994|
|         555|   -9.393024|  -11.762005|    0.824000|    0.011994|
|         556|   -9.396912|  -11.762793|    0.824000|    0.011994|
|         557|   -9.400492|  -11.763742|    0.824000|    0.011994|
|         558|   -9.403721|  -11.764850|    0.824000|    0.011994|
|         559|   -9.406570|  -11.766112|    0.824000|    0.011994|
|         560|   -9.409019|  -11.767522|    0.824000|    0.011994|
|         561|   -9.411052|  -11.769073|    0.824000|    0.011994|
|         562|   -9.412657|  -11.770757|    0.824000|    0.011994|
|         563|   -9.413834|  -11.772566|    0.824000|    0.011994|
|         564|   -9.414592|  -11.774489|    0.824000|    0.011994|
|         565|   -9.414946|  -11.776516|    0.824000|    0.011994|
|         566|   -9.414917|  -11.778636|    0.824000|    0.011994|
|         567|   -9.414539|  -11.780837|    0.824000|    0.011994|
|         568|   -9.413847|  -11.783107|    0.824000|    0.011994|
|         569|   -9.412881|  -11.785434|    0.824000|    0.011994|
|         570|   -9.411688|  -11.787806|    0.824000|    0.011994|
|         571|   -9.410314|  -11.790210|    0.824000|    0.011994|
|         572|   -9.408807|  -11.792636|    0.824000|    0.011994|
|         573|   -9.407214|  -11.795071|    0.824000|    0.011994|
|         574|   -9.405588|  -11.797507|    0.824000|    0.011994|
|         575|   -9.403972|  -11.799932|    0.824000|    0.011994|
|         576|   -9.402412|  -11.802340|    0.824000|    0.011994|
|         577|   -9.400950|  -11.804722|    0.824000|    0.011994|
|         578|   -9.399626|  -11.807072|    0.824000|    0.011994|
|         579|   -9.398475|  -11.809387|    0.824000|    0.011994|
|         580|   -9.397535|  -11.811663|    0.824000|    0.011994|
|         581|   -9.396830|  -11.813899|    0.824000|    0.011994|
|         582|   -9.396393|  -11.816094|    0.824000|    0.011994|
|         583|   -9.396244|  -11.818249|    0.824000|    0.011994|
|         584|   -9.396406|  -11.820369|    0.824000|    0.011994|
|         585|   -9.396896|  -11.822456|    0.824000|    0.011994|
|         586|   -9.397729|  -11.824516|    0.824000|    0.011994|
|         587|   -9.398911|  -11.826555|    0.824000|    0.011994|
|         588|   -9.400462|  -11.828581|    0.824000|    0.011994|
|         589|   -9.402380|  -11.830602|    0.824000|    0.011994|
|         590|   -9.404671|  -11.832627|    0.824000|    0.011994|
|         591|   -9.407336|  -11.834665|    0.824000|    0.011994|
|         592|   -9.410373|  -11.836724|    0.824000|    0.011994|
|         593|   -9.413779|  -11.838815|    0.824000|    0.011994|
|         594|   -9.417545|  -11.840947|    0.824000|    0.011994|
|         595|   -9.421668|  -11.843128|    0.824000|    0.011994|
|         596|   -9.426127|  -11.845368|    0.824000|    0.011994|
|         597|   -9.430913|  -11.847674|    0.824000|    0.011994|
|         598|   -9.436002|  -11.850055|    0.824000|    0.011994|
|         599|   -9.441376|  -11.852517|    0.824000|    0.011994|
|         600|   -9.447010|  -11.855066|    0.824000|    0.011994|
|         601|   -9.452873|  -11.857707|    0.824000|    0.011994|
|         602|   -9.458939|  -11.860445|    0.824000|    0.011994|
|         603|   -9.465162|  -11.863284|    0.824000|    0.011994|
|         604|   -9.471516|  -11.866226|    0.824000|    0.011994|
|         605|   -9.477946|  -11.869272|    0.824000|    0.011994|
|         606|   -9.484409|  -11.872424|    0.824000|    0.011994|
|         607|   -9.490862|  -11.875683|    0.824000|    0.011994|
|         608|   -9.497246|  -11.879046|    0.824000|    0.011994|
|         609|   -9.503507|  -11.882514|    0.824000|    0.011994|
|         610|   -9.509598|  -11.886083|    0.824000|    0.011994|
|         611|   -9.515456|  -11.889751|    0.824000|    0.011994|
|         612|   -9.521032|  -11.893516|    0.824000|    0.011994|
|         613|   -9.526274|  -11.897373|    0.824000|    0.011994|
|         614|   -9.531139|  -11.901318|    0.824000|    0.011994|
|         615|   -9.535581|  -11.905347|    0.824000|    0.011994|
|         616|   -9.539563|  -11.909455|    0.824000|    0.011994|
|         617|   -9.543063|  -11.913637|    0.824000|    0.011994|
|         618|   -9.546061|  -11.917888|    0.824000|    0.011994|
|         619|   -9.548548|  -11.922202|    0.824000|    0.011994|
|         620|   -9.550524|  -11.926576|    0.824000|    0.011994|
|         621|   -9.552001|  -11.931002|    0.824000|    0.011994|
|         622|   -9.553010|  -11.935476|    0.824000|    0.011994|
|         623|   -9.553565|  -11.939992|    0.824000|    0.011994|
|         624|   -9.553714|  -11.944544|    0.824000|    0.011994|
|         625|   -9.553496|  -11.949129|    0.824000|    0.011994|
|         626|   -9.552968|  -11.953739|    0.824000|    0.011994|
|         627|   -9.552173|  -11.958370|    0.824000|    0.011994|
|         628|   -9.551176|  -11.963016|    0.824000|    0.011994|
|         629|   -9.550024|  -11.967672|    0.824000|    0.011994|
|         630|   -9.548781|  -11.972332|    0.824000|    0.011994|
|         631|   -9.547497|  -11.976990|    0.824000|    0.011994|
|         632|   -9.546228|  -11.981640|    0.824000|    0.011994|
|         633|   -9.545019|  -11.986276|    0.824000|    0.011994|
|         634|   -9.543921|  -11.990892|    0.824000|    0.011994|
|         635|   -9.542978|  -11.995480|    0.824000|    0.011994|
|         636|   -9.542229|  -12.000033|    0.824000|    0.011994|
|         637|   -9.541712|  -12.004544|    0.824000|    0.011994|
|         638|   -9.541455|  -12.009006|    0.824000|    0.011994|
|         639|   -9.541496|  -12.013409|    0.824000|    0.011994|
|         640|   -9.541859|  -12.017745|    0.824000|    0.011994|
|         641|   -9.542562|  -12.022005|    0.824000|    0.011994|
|         642|   -9.543630|  -12.026180|    0.824000|    0.011994|
|         643|   -9.545076|  -12.030260|    0.824000|    0.011994|
|         644|   -9.546918|  -12.034235|    0.824000|    0.011994|
|         645|   -9.549167|  -12.038096|    0.824000|    0.011994|
|         646|   -9.551828|  -12.041833|    0.824000|    0.011994|
|         647|   -9.554912|  -12.045437|    0.824000|    0.011994|
|         648|   -9.558416|  -12.048899|    0.824000|    0.011994|
|         649|   -9.562350|  -12.052211|    0.824000|    0.011994|
|         650|   -9.566704|  -12.055364|    0.824000|    0.011994|
|         651|   -9.571472|  -12.058353|    0.824000|    0.011994|
|         652|   -9.576656|  -12.061173|    0.824000|    0.011994|
|         653|   -9.582240|  -12.063818|    0.824000|    0.011994|
|         654|   -9.588209|  -12.066287|    0.824000|    0.011994|
|         655|   -9.594557|  -12.068578|    0.824000|    0.011994|
|         656|   -9.601255|  -12.070693|    0.824000|    0.011994|
|         657|   -9.608277|  -12.072632|    0.824000|    0.011994|
|         658|   -9.615600|  -12.074402|    0.824000|    0.011994|
|         659|   -9.623190|  -12.076008|    0.824000|    0.011994|
|         660|   -9.631014|  -12.077458|    0.824000|    0.011994|
|         661|   -9.639015|  -12.078761|    0.824000|    0.011994|
|         662|   -9.647162|  -12.079930|    0.824000|    0.011994|
|         663|   -9.655396|  -12.080977|    0.824000|    0.011994|
|         664|   -9.663672|  -12.081916|    0.824000|    0.011994|
|         665|   -9.671917|  -12.082763|    0.824000|    0.011994|
|         666|   -9.680075|  -12.083535|    0.824000|    0.011994|
|         667|   -9.688072|  -12.084248|    0.824000|    0.011994|
|         668|   -9.695857|  -12.084920|    0.824000|    0.011994|
|         669|   -9.703343|  -12.085569|    0.824000|    0.011994|
|         670|   -9.710475|  -12.086213|    0.824000|    0.011994|
|         671|   -9.717183|  -12.086871|    0.824000|    0.011994|
|         672|   -9.723416|  -12.087561|    0.824000|    0.011994|
|         673|   -9.729128|  -12.088300|    0.824000|    0.011994|
|         674|   -9.734279|  -12.089105|    0.824000|    0.011994|
|         675|   -9.738837|  -12.089992|    0.824000|    0.011994|
|         676|   -9.742783|  -12.090978|    0.824000|    0.011994|
|         677|   -9.746128|  -12.092076|    0.824000|    0.011994|
|         678|   -9.748866|  -12.093301|    0.824000|    0.011994|
|         679|   -9.751039|  -12.094665|    0.824000|    0.011994|
|         680|   -9.752665|  -12.096181|    0.824000|    0.011994|
|         681|   -9.753813|  -12.097859|    0.824000|    0.011994|
|         682|   -9.754513|  -12.099708|    0.824000|    0.011994|
|         683|   -9.754852|  -12.101737|    0.824000|    0.011994|
|         684|   -9.754876|  -12.103955|    0.824000|    0.011994|
|         685|   -9.754667|  -12.106367|    0.824000|    0.011994|
|         686|   -9.754282|  -12.108979|    0.824000|    0.011994|
|         687|   -9.753795|  -12.111795|    0.824000|    0.011994|
|         688|   -9.753280|  -12.114818|    0.824000|    0.011994|
|         689|   -9.752793|  -12.118051|    0.824000|    0.011994|
|         690|   -9.752384|  -12.121495|    0.824000|    0.011994|
|         691|   -9.752129|  -12.125151|    0.824000|    0.011994|
|         692|   -9.752060|  -12.129017|    0.824000|    0.011994|
|         693|   -9.752226|  -12.133092|    0.824000|    0.011994|
|         694|   -9.752665|  -12.137373|    0.824000|    0.011994|
|         695|   -9.753424|  -12.141857|    0.824000|    0.011994|
|         696|   -9.754517|  -12.146538|    0.824000|    0.011994|
|         697|   -9.755972|  -12.151409|    0.824000|    0.011994|
|         698|   -9.757815|  -12.156466|    0.824000|    0.011994|
|         699|   -9.760059|  -12.161698|    0.824000|    0.011994|
|         700|   -9.762719|  -12.167097|    0.824000|    0.011994|
|         701|   -9.765817|  -12.172651|    0.824000|    0.011994|
|         702|   -9.769338|  -12.178350|    0.824000|    0.011994|
|         703|   -9.773284|  -12.184179|    0.824000|    0.011994|
|         704|   -9.777659|  -12.190124|    0.824000|    0.011994|
|         705|   -9.782463|  -12.196169|    0.824000|    0.011994|
|         706|   -9.787675|  -12.202296|    0.824000|    0.011994|
|         707|   -9.793290|  -12.208487|    0.824000|    0.011994|
|         708|   -9.799291|  -12.214721|    0.824000|    0.011994|
|         709|   -9.805644|  -12.220976|    0.824000|    0.011994|
|         710|   -9.812342|  -12.227231|    0.824000|    0.011994|
|         711|   -9.819321|  -12.233459|    0.824000|    0.011994|
|         712|   -9.826575|  -12.239638|    0.824000|    0.011994|
|         713|   -9.834063|  -12.245740|    0.824000|    0.011994|
|         714|   -9.841720|  -12.251739|    0.824000|    0.011994|
|         715|   -9.849501|  -12.257608|    0.824000|    0.011994|
|         716|   -9.857361|  -12.263321|    0.824000|    0.011994|
|         717|   -9.865230|  -12.268852|    0.824000|    0.011994|
|         718|   -9.873033|  -12.274176|    0.824000|    0.011994|
|         719|   -9.880722|  -12.279268|    0.824000|    0.011994|
|         720|   -9.888218|  -12.284109|    0.824000|    0.011994|
|         721|   -9.895445|  -12.288677|    0.824000|    0.011994|
|         722|   -9.902329|  -12.292957|    0.824000|    0.011994|
|         723|   -9.908796|  -12.296936|    0.824000|    0.011994|
|         724|   -9.914817|  -12.300605|    0.824000|    0.011994|
|         725|   -9.920306|  -12.303957|    0.824000|    0.011994|
|         726|   -9.925227|  -12.306994|    0.824000|    0.011994|
|         727|   -9.929552|  -12.309717|    0.824000|    0.011994|
|         728|   -9.933258|  -12.312135|    0.824000|    0.011994|
|         729|   -9.936321|  -12.314259|    0.824000|    0.011994|
|         730|   -9.938767|  -12.316105|    0.824000|    0.011994|
|         731|   -9.940614|  -12.317692|    0.824000|    0.011994|
|         732|   -9.941878|  -12.319042|    0.824000|    0.011994|
|         733|   -9.942606|  -12.320182|    0.824000|    0.011994|
|         734|   -9.942867|  -12.321139|    0.824000|    0.011994|
|         735|   -9.942720|  -12.321941|    0.824000|    0.011994|
|         736|   -9.942213|  -12.322619|    0.824000|    0.011994|
|         737|   -9.941431|  -12.323205|    0.824000|    0.011994|
|         738|   -9.940426|  -12.323729|    0.824000|    0.011994|
|         739|   -9.939276|  -12.324224|    0.824000|    0.011994|
|         740|   -9.938049|  -12.324719|    0.824000|    0.011994|
|         741|   -9.936804|  -12.325243|    0.824000|    0.011994|
|         742|   -9.935600|  -12.325826|    0.824000|    0.011994|
|         743|   -9.934476|  -12.326495|    0.824000|    0.011994|
|         744|   -9.933504|  -12.327274|    0.824000|    0.011994|
|         745|   -9.932692|  -12.328187|    0.824000|    0.011994|
|         746|   -9.932100|  -12.329256|    0.824000|    0.011994|
|         747|   -9.931748|  -12.330500|    0.824000|    0.011994|
|         748|   -9.931659|  -12.331937|    0.824000|    0.011994|
|         749|   -9.931853|  -12.333583|    0.824000|    0.011994|
|         750|   -9.932341|  -12.335451|    0.824000|    0.011994|
|         751|   -9.933141|  -12.337551|    0.824000|    0.011994|
|         752|   -9.934245|  -12.339893|    0.824000|    0.011994|
|         753|   -9.935655|  -12.342484|    0.824000|    0.011994|
|         754|   -9.937357|  -12.345328|    0.824000|    0.011994|
|         755|   -9.939341|  -12.348426|    0.824000|    0.011994|
|         756|   -9.941592|  -12.351779|    0.824000|    0.011994|
|         757|   -9.944103|  -12.355383|    0.824000|    0.011994|
|         758|   -9.946816|  -12.359233|    0.824000|    0.011994|
|         759|   -9.949741|  -12.363319|    0.824000|    0.011994|
|         760|   -9.952821|  -12.367631|    0.824000|    0.011994|
|         761|   -9.956023|  -12.372155|    0.824000|    0.011994|
|         762|   -9.959304|  -12.376872|    0.824000|    0.011994|
|         763|   -9.962640|  -12.381762|    0.824000|    0.011994|
|         764|   -9.965957|  -12.386800|    0.824000|    0.011994|
|         765|   -9.969231|  -12.391958|    0.824000|    0.011994|
|         766|   -9.972404|  -12.397206|    0.824000|    0.011994|
|         767|   -9.975411|  -12.402508|    0.824000|    0.011994|
|         768|   -9.978238|  -12.407827|    0.824000|    0.011994|
|         769|   -9.980838|  -12.413121|    0.824000|    0.011994|
|         770|   -9.983144|  -12.418346|    0.824000|    0.011994|
|         771|   -9.985147|  -12.423456|    0.824000|    0.011994|
|         772|   -9.986816|  -12.428403|    0.824000|    0.011994|
|         773|   -9.988098|  -12.433139|    0.824000|    0.011994|
|         774|   -9.989007|  -12.437615|    0.824000|    0.011994|
|         775|   -9.989527|  -12.441784|    0.824000|    0.011994|
|         776|   -9.989663|  -12.445603|    0.824000|    0.011994|
|         777|   -9.989409|  -12.449029|    0.824000|    0.011994|
|         778|   -9.988800|  -12.452028|    0.824000|    0.011994|
|         779|   -9.987848|  -12.454572|    0.824000|    0.011994|
|         780|   -9.986584|  -12.456639|    0.824000|    0.011994|
|         781|   -9.985037|  -12.458215|    0.824000|    0.011994|
|         782|   -9.983269|  -12.459297|    0.824000|    0.011994|
|         783|   -9.981299|  -12.459890|    0.824000|    0.011994|
|         784|   -9.979169|  -12.460009|    0.824000|    0.011994|
|         785|   -9.976947|  -12.459677|    0.824000|    0.011994|
|         786|   -9.974653|  -12.458925|    0.824000|    0.011994|
|         787|   -9.972333|  -12.457790|    0.824000|    0.011994|
|         788|   -9.970054|  -12.456317|    0.824000|    0.011994|
|         789|   -9.967826|  -12.454555|    0.824000|    0.011994|
|         790|   -9.965698|  -12.452554|    0.824000|    0.011994|
|         791|   -9.963693|  -12.450369|    0.824000|    0.011994|
|         792|   -9.961849|  -12.448054|    0.824000|    0.011994|
|         793|   -9.960181|  -12.445664|    0.824000|    0.011994|
|         794|   -9.958717|  -12.443250|    0.824000|    0.011994|
|         795|   -9.957469|  -12.440864|    0.824000|    0.011994|
|         796|   -9.956471|  -12.438555|    0.824000|    0.011994|
|         797|   -9.955708|  -12.436368|    0.824000|    0.011994|
|         798|   -9.955199|  -12.434346|    0.824000|    0.011994|
|         799|   -9.954933|  -12.432528|    0.824000|    0.011994|
|         800|   -9.954936|  -12.430948|    0.824000|    0.011994|
|         801|   -9.955179|  -12.429640|    0.824000|    0.011994|
|         802|   -9.955672|  -12.428632|    0.824000|    0.011994|
|         803|   -9.956394|  -12.427949|    0.824000|    0.011994|
|         804|   -9.957314|  -12.427615|    0.824000|    0.011994|
|         805|   -9.958443|  -12.427648|    0.824000|    0.011994|
|         806|   -9.959747|  -12.428065|    0.824000|    0.011994|
|         807|   -9.961216|  -12.428879|    0.824000|    0.011994|
|         808|   -9.962810|  -12.430101|    0.824000|    0.011994|
|         809|   -9.964504|  -12.431740|    0.824000|    0.011994|
|         810|   -9.966257|  -12.433801|    0.824000|    0.011994|
|         811|   -9.968062|  -12.436288|    0.824000|    0.011994|
|         812|   -9.969862|  -12.439201|    0.824000|    0.011994|
|         813|   -9.971623|  -12.442538|    0.824000|    0.011994|
|         814|   -9.973333|  -12.446295|    0.824000|    0.011994|
|         815|   -9.974933|  -12.450465|    0.824000|    0.011994|
|         816|   -9.976406|  -12.455037|    0.824000|    0.011994|
|         817|   -9.977711|  -12.459998|    0.824000|    0.011994|
|         818|   -9.978828|  -12.465331|    0.824000|    0.011994|
|         819|   -9.979724|  -12.471017|    0.824000|    0.011994|
|         820|   -9.980363|  -12.477031|    0.824000|    0.011994|
|         821|   -9.980751|  -12.483347|    0.824000|    0.011994|
|         822|   -9.980873|  -12.489931|    0.824000|    0.011994|
|         823|   -9.980705|  -12.496748|    0.824000|    0.011994|
|         824|   -9.980265|  -12.503756|    0.824000|    0.011994|
|         825|   -9.979537|  -12.510909|    0.824000|    0.011994|
|         826|   -9.978538|  -12.518156|    0.824000|    0.011994|
|         827|   -9.977292|  -12.525442|    0.824000|    0.011994|
|         828|   -9.975815|  -12.532707|    0.824000|    0.011994|
|         829|   -9.974116|  -12.539887|    0.824000|    0.011994|
|         830|   -9.972234|  -12.546916|    0.824000|    0.011994|
|         831|   -9.970191|  -12.553725|    0.824000|    0.011994|
|         832|   -9.968039|  -12.560243|    0.824000|    0.011994|
|         833|   -9.965777|  -12.566405|    0.824000|    0.011994|
|         834|   -9.963488|  -12.572143|    0.824000|    0.011994|
|         835|   -9.961154|  -12.577397|    0.824000|    0.011994|
|         836|   -9.958846|  -12.582113|    0.824000|    0.011994|
|         837|   -9.956575|  -12.586247|    0.824000|    0.011994|
|         838|   -9.954400|  -12.589764|    0.824000|    0.011994|
|         839|   -9.952326|  -12.592642|    0.824000|    0.011994|
|         840|   -9.950381|  -12.594873|    0.824000|    0.011994|
|         841|   -9.948617|  -12.596461|    0.824000|    0.011994|
|         842|   -9.947046|  -12.597423|    0.824000|    0.011994|
|         843|   -9.945683|  -12.597791|    0.824000|    0.011994|
|         844|   -9.944548|  -12.597604|    0.824000|    0.011994|
|         845|   -9.943664|  -12.596914|    0.824000|    0.011994|
|         846|   -9.943042|  -12.595778|    0.824000|    0.011994|
|         847|   -9.942703|  -12.594260|    0.824000|    0.011994|
|         848|   -9.942647|  -12.592426|    0.824000|    0.011994|
|         849|   -9.942884|  -12.590344|    0.824000|    0.011994|
|         850|   -9.943430|  -12.588081|    0.824000|    0.011994|
|         851|   -9.944269|  -12.585703|    0.824000|    0.011994|
|         852|   -9.945427|  -12.583273|    0.824000|    0.011994|
|         853|   -9.946863|  -12.580850|    0.824000|    0.011994|
|         854|   -9.948611|  -12.578488|    0.824000|    0.011994|
|         855|   -9.950638|  -12.576237|    0.824000|    0.011994|
|         856|   -9.952951|  -12.574142|    0.824000|    0.011994|
|         857|   -9.955527|  -12.572243|    0.824000|    0.011994|
|         858|   -9.958354|  -12.570575|    0.824000|    0.011994|
|         859|   -9.961405|  -12.569168|    0.824000|    0.011994|
|         860|   -9.964669|  -12.568048|    0.824000|    0.011994|
|         861|   -9.968117|  -12.567235|    0.824000|    0.011994|
|         862|   -9.971727|  -12.566748|    0.824000|    0.011994|
|         863|   -9.975475|  -12.566599|    0.824000|    0.011994|
|         864|   -9.979293|  -12.566797|    0.824000|    0.011994|
|         865|   -9.983186|  -12.567348|    0.824000|    0.011994|
|         866|   -9.987102|  -12.568254|    0.824000|    0.011994|
|         867|   -9.990995|  -12.569515|    0.824000|    0.011994|
|         868|   -9.994824|  -12.571125|    0.824000|    0.011994|
|         869|   -9.998559|  -12.573078|    0.824000|    0.011994|
|         870|  -10.002131|  -12.575362|    0.824000|    0.011994|
|         871|  -10.005532|  -12.577962|    0.824000|    0.011994|
|         872|  -10.008699|  -12.580861|    0.824000|    0.011994|
|         873|  -10.011580|  -12.584039|    0.824000|    0.011994|
|         874|  -10.014182|  -12.587471|    0.824000|    0.011994|
|         875|  -10.016442|  -12.591130|    0.824000|    0.011994|
|         876|  -10.018340|  -12.594983|    0.824000|    0.011994|
|         877|  -10.019875|  -12.598997|    0.824000|    0.011994|
|         878|  -10.020989|  -12.603133|    0.824000|    0.011994|
|         879|  -10.021727|  -12.607350|    0.824000|    0.011994|
|         880|  -10.022069|  -12.611604|    0.824000|    0.011994|
|         881|  -10.022019|  -12.615851|    0.824000|    0.011994|
|         882|  -10.021612|  -12.620040|    0.824000|    0.011994|
|         883|  -10.020860|  -12.624122|    0.824000|    0.011994|
|         884|  -10.019779|  -12.628048|    0.824000|    0.011994|
|         885|  -10.018420|  -12.631768|    0.824000|    0.011994|
|         886|  -10.016819|  -12.635236|    0.824000|    0.011994|
|         887|  -10.014997|  -12.638406|    0.824000|    0.011994|
|         888|  -10.013029|  -12.641238|    0.824000|    0.011994|
|         889|  -10.010929|  -12.643696|    0.824000|    0.011994|
|         890|  -10.008749|  -12.645753|    0.824000|    0.011994|
|         891|  -10.006559|  -12.647386|    0.824000|    0.011994|
|         892|  -10.004371|  -12.648584|    0.824000|    0.011994|
|         893|  -10.002238|  -12.649341|    0.824000|    0.011994|
|         894|  -10.000190|  -12.649663|    0.824000|    0.011994|
|         895|   -9.998273|  -12.649563|    0.824000|    0.011994|
|         896|   -9.996519|  -12.649062|    0.824000|    0.011994|
|         897|   -9.994957|  -12.648190|    0.824000|    0.011994|
|         898|   -9.993614|  -12.646984|    0.824000|    0.011994|
|         899|   -9.992517|  -12.645483|    0.824000|    0.011994|
|         900|   -9.991682|  -12.643735|    0.824000|    0.011994|
|         901|   -9.991143|  -12.641789|    0.824000|    0.011994|
|         902|   -9.990919|  -12.639695|    0.824000|    0.011994|
|         903|   -9.990998|  -12.637505|    0.824000|    0.011994|
|         904|   -9.991423|  -12.635271|    0.824000|    0.011994|
|         905|   -9.992186|  -12.633043|    0.824000|    0.011994|
|         906|   -9.993309|  -12.630870|    0.824000|    0.011994|
|         907|   -9.994775|  -12.628800|    0.824000|    0.011994|
|         908|   -9.996605|  -12.626876|    0.824000|    0.011994|
|         909|   -9.998777|  -12.625139|    0.824000|    0.011994|
|         910|  -10.001313|  -12.623629|    0.824000|    0.011994|
|         911|  -10.004213|  -12.622380|    0.824000|    0.011994|
|         912|  -10.007465|  -12.621425|    0.824000|    0.011994|
|         913|  -10.011014|  -12.620792|    0.824000|    0.011994|
|         914|  -10.014907|  -12.620510|    0.824000|    0.011994|
|         915|  -10.019110|  -12.620600|    0.824000|    0.011994|
|         916|  -10.023596|  -12.621084|    0.824000|    0.011994|
|         917|  -10.028356|  -12.621981|    0.824000|    0.011994|
|         918|  -10.033335|  -12.623305|    0.824000|    0.011994|
|         919|  -10.038543|  -12.625071|    0.824000|    0.011994|
|         920|  -10.043937|  -12.627291|    0.824000|    0.011994|
|         921|  -10.049479|  -12.629972|    0.824000|    0.011994|
|         922|  -10.055135|  -12.633124|    0.824000|    0.011994|
|         923|  -10.060868|  -12.636749|    0.824000|    0.011994|
|         924|  -10.066621|  -12.640852|    0.824000|    0.011994|
|         925|  -10.072354|  -12.645432|    0.824000|    0.011994|
|         926|  -10.078029|  -12.650487|    0.824000|    0.011994|
|         927|  -10.083578|  -12.656013|    0.824000|    0.011994|
|         928|  -10.088970|  -12.662003|    0.824000|    0.011994|
|         929|  -10.094138|  -12.668445|    0.824000|    0.011994|
|         930|  -10.099035|  -12.675327|    0.824000|    0.011994|
|         931|  -10.103621|  -12.682630|    0.824000|    0.011994|
|         932|  -10.107834|  -12.690333|    0.824000|    0.011994|
|         933|  -10.111633|  -12.698410|    0.824000|    0.011994|
|         934|  -10.115031|  -12.706831|    0.824000|    0.011994|
|         935|  -10.117949|  -12.715556|    0.824000|    0.011994|
|         936|  -10.120406|  -12.724545|    0.824000|    0.011994|
|         937|  -10.122371|  -12.733746|    0.824000|    0.011994|
|         938|  -10.123846|  -12.743106|    0.824000|    0.011994|
|         939|  -10.124855|  -12.752558|    0.824000|    0.011994|
|         940|  -10.125410|  -12.762035|    0.824000|    0.011994|
|         941|  -10.125530|  -12.771457|    0.824000|    0.011994|
|         942|  -10.125247|  -12.780742|    0.824000|    0.011994|
|         943|  -10.124602|  -12.789801|    0.824000|    0.011994|
|         944|  -10.123643|  -12.798542|    0.824000|    0.011994|
|         945|  -10.122407|  -12.806872|    0.824000|    0.011994|
|         946|  -10.120967|  -12.814698|    0.824000|    0.011994|
|         947|  -10.119347|  -12.821932|    0.824000|    0.011994|
|         948|  -10.117615|  -12.828493|    0.824000|    0.011994|
|         949|  -10.115811|  -12.834314|    0.824000|    0.011994|
|         950|  -10.113989|  -12.839338|    0.824000|    0.011994|
|         951|  -10.112192|  -12.843528|    0.824000|    0.011994|
|         952|  -10.110483|  -12.846864|    0.824000|    0.011994|
|         953|  -10.108865|  -12.849349|    0.824000|    0.011994|
|         954|  -10.107415|  -12.851004|    0.824000|    0.011994|
|         955|  -10.106135|  -12.851871|    0.824000|    0.011994|
|         956|  -10.105090|  -12.852004|    0.824000|    0.011994|
|         957|  -10.104269|  -12.851479|    0.824000|    0.011994|
|         958|  -10.103721|  -12.850373|    0.824000|    0.011994|
|         959|  -10.103466|  -12.848778|    0.824000|    0.011994|
|         960|  -10.103511|  -12.846786|    0.824000|    0.011994|
|         961|  -10.103885|  -12.844489|    0.824000|    0.011994|
|         962|  -10.104584|  -12.841980|    0.824000|    0.011994|
|         963|  -10.105627|  -12.839345|    0.824000|    0.011994|
|         964|  -10.107039|  -12.836666|    0.824000|    0.011994|
|         965|  -10.108795|  -12.834020|    0.824000|    0.011994|
|         966|  -10.110924|  -12.831472|    0.824000|    0.011994|
|         967|  -10.113405|  -12.829085|    0.824000|    0.011994|
|         968|  -10.116245|  -12.826910|    0.824000|    0.011994|
|         969|  -10.119425|  -12.824993|    0.824000|    0.011994|
|         970|  -10.122958|  -12.823374|    0.824000|    0.011994|
|         971|  -10.126834|  -12.822083|    0.824000|    0.011994|
|         972|  -10.131012|  -12.821146|    0.824000|    0.011994|
|         973|  -10.135511|  -12.820582|    0.824000|    0.011994|
|         974|  -10.140295|  -12.820405|    0.824000|    0.011994|
|         975|  -10.145350|  -12.820625|    0.824000|    0.011994|
|         976|  -10.150650|  -12.821243|    0.824000|    0.011994|
|         977|  -10.156139|  -12.822258|    0.824000|    0.011994|
|         978|  -10.161839|  -12.823664|    0.824000|    0.011994|
|         979|  -10.167691|  -12.825449|    0.824000|    0.011994|
|         980|  -10.173646|  -12.827598|    0.824000|    0.011994|
|         981|  -10.179639|  -12.830089|    0.824000|    0.011994|
|         982|  -10.185657|  -12.832896|    0.824000|    0.011994|
|         983|  -10.191657|  -12.835987|    0.824000|    0.011994|
|         984|  -10.197590|  -12.839329|    0.824000|    0.011994|
|         985|  -10.203415|  -12.842878|    0.824000|    0.011994|
|         986|  -10.209042|  -12.846588|    0.824000|    0.011994|
|         987|  -10.214435|  -12.850407|    0.824000|    0.011994|
|         988|  -10.219548|  -12.854280|    0.824000|    0.011994|
|         989|  -10.224325|  -12.858143|    0.824000|    0.011994|
|         990|  -10.228764|  -12.861934|    0.824000|    0.011994|
|         991|  -10.232748|  -12.865585|    0.824000|    0.011994|
|         992|  -10.236323|  -12.869024|    0.824000|    0.011994|
|         993|  -10.239407|  -12.872184|    0.824000|    0.011994|
|         994|  -10.242000|  -12.874994|    0.824000|    0.011994|
|         995|  -10.244114|  -12.877390|    0.824000|    0.011994|
|         996|  -10.245729|  -12.879312|    0.824000|    0.011994|
|         997|  -10.246872|  -12.880708|    0.824000|    0.011994|
|         998|  -10.247532|  -12.881534|    0.824000|    0.011994|
|         999|  -10.247757|  -12.881758|    0.824000|    0.011994|
|        1000|  -10.247580|  -12.881360|    0.824000|    0.011994|
|        1001|  -10.247048|  -12.880335|    0.824000|    0.011994|
|        1002|  -10.246201|  -12.878688|    0.824000|    0.011994|
[...]
|        2291|   -6.009293|   -7.912534|    0.824238|    0.011999|
|        2292|   -6.017358|   -7.916376|    0.824238|    0.011999|
|        2293|   -6.025281|   -7.920193|    0.824238|    0.011999|
|        2294|   -6.032993|   -7.924004|    0.824239|    0.011999|
|        2295|   -6.040428|   -7.927829|    0.824239|    0.011999|
|        2296|   -6.047526|   -7.931683|    0.824239|    0.011999|
|        2297|   -6.054234|   -7.935580|    0.824239|    0.011999|
|        2298|   -6.060506|   -7.939531|    0.824239|    0.011999|
|        2299|   -6.066312|   -7.943544|    0.824239|    0.011998|
|        2300|   -6.071629|   -7.947624|    0.824239|    0.011998|
|        2301|   -6.076451|   -7.951774|    0.824239|    0.011998|
|        2302|   -6.080784|   -7.955994|    0.824239|    0.011998|
|        2303|   -6.084643|   -7.960284|    0.824240|    0.011998|
|        2304|   -6.088060|   -7.964644|    0.824240|    0.011998|
|        2305|   -6.091073|   -7.969071|    0.824240|    0.011998|
|        2306|   -6.093729|   -7.973559|    0.824240|    0.011998|
|        2307|   -6.096082|   -7.978102|    0.824240|    0.011998|
|        2308|   -6.098192|   -7.982694|    0.824240|    0.011998|
|        2309|   -6.100117|   -7.987331|    0.824240|    0.011998|
|        2310|   -6.101917|   -7.992007|    0.824240|    0.011998|
|        2311|   -6.103654|   -7.996719|    0.824240|    0.011998|
|        2312|   -6.105383|   -8.001466|    0.824240|    0.011998|
|        2313|   -6.107157|   -8.006246|    0.824241|    0.011998|
|        2314|   -6.109023|   -8.011062|    0.824241|    0.011998|
|        2315|   -6.111025|   -8.015914|    0.824241|    0.011998|
|        2316|   -6.113198|   -8.020806|    0.824241|    0.011998|
|        2317|   -6.115572|   -8.025742|    0.824241|    0.011998|
|        2318|   -6.118169|   -8.030726|    0.824241|    0.011998|
|        2319|   -6.121005|   -8.035763|    0.824241|    0.011998|
|        2320|   -6.124090|   -8.040858|    0.824242|    0.011998|
|        2321|   -6.127427|   -8.046016|    0.824242|    0.011998|
|        2322|   -6.131011|   -8.051239|    0.824242|    0.011999|
|        2323|   -6.134830|   -8.056530|    0.824242|    0.011999|
|        2324|   -6.138870|   -8.061890|    0.824242|    0.011999|
|        2325|   -6.143106|   -8.067318|    0.824242|    0.011999|
|        2326|   -6.147510|   -8.072816|    0.824243|    0.011999|
|        2327|   -6.152048|   -8.078382|    0.824243|    0.011999|
|        2328|   -6.156682|   -8.084013|    0.824243|    0.011999|
|        2329|   -6.161371|   -8.089707|    0.824243|    0.011999|
|        2330|   -6.166071|   -8.095458|    0.824243|    0.011999|
|        2331|   -6.170736|   -8.101263|    0.824243|    0.011999|
|        2332|   -6.175320|   -8.107117|    0.824244|    0.011999|
|        2333|   -6.179778|   -8.113012|    0.824244|    0.011999|
|        2334|   -6.184069|   -8.118945|    0.824244|    0.011999|
|        2335|   -6.188156|   -8.124911|    0.824244|    0.012000|
|        2336|   -6.192005|   -8.130903|    0.824244|    0.012000|
|        2337|   -6.195593|   -8.136920|    0.824244|    0.012000|
|        2338|   -6.198900|   -8.142956|    0.824245|    0.012000|
|        2339|   -6.201919|   -8.149010|    0.824245|    0.012000|
|        2340|   -6.204649|   -8.155080|    0.824245|    0.012000|
|        2341|   -6.207098|   -8.161165|    0.824245|    0.012000|
|        2342|   -6.209285|   -8.167265|    0.824245|    0.012000|
|        2343|   -6.211233|   -8.173380|    0.824245|    0.012000|
|        2344|   -6.212976|   -8.179512|    0.824245|    0.012000|
|        2345|   -6.214548|   -8.185663|    0.824246|    0.012000|
|        2346|   -6.215997|   -8.191835|    0.824246|    0.012000|
|        2347|   -6.217362|   -8.198032|    0.824246|    0.012000|
|        2348|   -6.218689|   -8.204256|    0.824246|    0.012001|
|        2349|   -6.220025|   -8.210510|    0.824246|    0.012001|
|        2350|   -6.221415|   -8.216800|    0.824246|    0.012001|
|        2351|   -6.222903|   -8.223127|    0.824246|    0.012001|
|        2352|   -6.224529|   -8.229492|    0.824246|    0.012001|
|        2353|   -6.226330|   -8.235897|    0.824246|    0.012001|
|        2354|   -6.228340|   -8.242342|    0.824246|    0.012001|
|        2355|   -6.230589|   -8.248825|    0.824247|    0.012001|
|        2356|   -6.233101|   -8.255346|    0.824247|    0.012001|
|        2357|   -6.235897|   -8.261900|    0.824247|    0.012001|
|        2358|   -6.238991|   -8.268486|    0.824247|    0.012001|
|        2359|   -6.242394|   -8.275100|    0.824247|    0.012001|
|        2360|   -6.246112|   -8.281736|    0.824247|    0.012001|
|        2361|   -6.250144|   -8.288390|    0.824247|    0.012001|
|        2362|   -6.254487|   -8.295054|    0.824247|    0.012001|
|        2363|   -6.259129|   -8.301723|    0.824247|    0.012001|
|        2364|   -6.264057|   -8.308388|    0.824247|    0.012001|
|        2365|   -6.269250|   -8.315044|    0.824247|    0.012001|
|        2366|   -6.274684|   -8.321683|    0.824247|    0.012001|
|        2367|   -6.280329|   -8.328299|    0.824247|    0.012001|
|        2368|   -6.286152|   -8.334887|    0.824247|    0.012001|
|        2369|   -6.292114|   -8.341442|    0.824247|    0.012001|
|        2370|   -6.298174|   -8.347960|    0.824247|    0.012001|
|        2371|   -6.304287|   -8.354438|    0.824247|    0.012001|
|        2372|   -6.310406|   -8.360874|    0.824247|    0.012001|
|        2373|   -6.316480|   -8.367266|    0.824247|    0.012001|
|        2374|   -6.322461|   -8.373616|    0.824247|    0.012001|
|        2375|   -6.328299|   -8.379925|    0.824247|    0.012001|
|        2376|   -6.333946|   -8.386195|    0.824247|    0.012000|
|        2377|   -6.339357|   -8.392429|    0.824247|    0.012000|
|        2378|   -6.344490|   -8.398634|    0.824247|    0.012000|
|        2379|   -6.349309|   -8.404814|    0.824247|    0.012000|
|        2380|   -6.353785|   -8.410977|    0.824247|    0.012000|
|        2381|   -6.357895|   -8.417131|    0.824247|    0.012000|
|        2382|   -6.361622|   -8.423283|    0.824247|    0.012000|
|        2383|   -6.364958|   -8.429442|    0.824247|    0.012000|
|        2384|   -6.367904|   -8.435615|    0.824247|    0.012000|
|        2385|   -6.370464|   -8.441809|    0.824247|    0.012000|
|        2386|   -6.372651|   -8.448030|    0.824247|    0.012000|
|        2387|   -6.374483|   -8.454282|    0.824247|    0.012000|
|        2388|   -6.375982|   -8.460570|    0.824248|    0.012000|
|        2389|   -6.377173|   -8.466892|    0.824248|    0.011999|
|        2390|   -6.378083|   -8.473248|    0.824248|    0.011999|
|        2391|   -6.378741|   -8.479634|    0.824248|    0.011999|
|        2392|   -6.379173|   -8.486042|    0.824248|    0.011999|
|        2393|   -6.379407|   -8.492463|    0.824248|    0.011999|
|        2394|   -6.379468|   -8.498885|    0.824248|    0.011999|
|        2395|   -6.379379|   -8.505291|    0.824248|    0.011999|
|        2396|   -6.379162|   -8.511666|    0.824249|    0.011999|
|        2397|   -6.378832|   -8.517988|    0.824249|    0.011999|
|        2398|   -6.378408|   -8.524237|    0.824249|    0.011999|
|        2399|   -6.377900|   -8.530390|    0.824249|    0.011998|
|        2400|   -6.377319|   -8.536424|    0.824249|    0.011998|
|        2401|   -6.376675|   -8.542316|    0.824249|    0.011998|
|        2402|   -6.375972|   -8.548044|    0.824250|    0.011998|
|        2403|   -6.375218|   -8.553587|    0.824250|    0.011998|
|        2404|   -6.374414|   -8.558927|    0.824250|    0.011998|
|        2405|   -6.373565|   -8.564049|    0.824250|    0.011998|
|        2406|   -6.372673|   -8.568938|    0.824250|    0.011998|
|        2407|   -6.371739|   -8.573586|    0.824250|    0.011998|
|        2408|   -6.370767|   -8.577988|    0.824251|    0.011998|
|        2409|   -6.369759|   -8.582141|    0.824251|    0.011998|
|        2410|   -6.368717|   -8.586046|    0.824251|    0.011997|
|        2411|   -6.367644|   -8.589708|    0.824251|    0.011997|
|        2412|   -6.366543|   -8.593134|    0.824251|    0.011997|
|        2413|   -6.365420|   -8.596331|    0.824251|    0.011997|
|        2414|   -6.364278|   -8.599312|    0.824252|    0.011997|
|        2415|   -6.363122|   -8.602087|    0.824252|    0.011997|
|        2416|   -6.361959|   -8.604668|    0.824252|    0.011997|
|        2417|   -6.360796|   -8.607065|    0.824252|    0.011997|
|        2418|   -6.359640|   -8.609289|    0.824252|    0.011997|
|        2419|   -6.358499|   -8.611350|    0.824252|    0.011997|
|        2420|   -6.357382|   -8.613255|    0.824253|    0.011997|
|        2421|   -6.356298|   -8.615013|    0.824253|    0.011997|
|        2422|   -6.355259|   -8.616628|    0.824253|    0.011997|
|        2423|   -6.354276|   -8.618105|    0.824253|    0.011997|
|        2424|   -6.353362|   -8.619448|    0.824253|    0.011997|
|        2425|   -6.352528|   -8.620661|    0.824253|    0.011997|
|        2426|   -6.351788|   -8.621746|    0.824253|    0.011997|
|        2427|   -6.351157|   -8.622708|    0.824253|    0.011997|
|        2428|   -6.350648|   -8.623549|    0.824254|    0.011997|
|        2429|   -6.350277|   -8.624277|    0.824254|    0.011997|
|        2430|   -6.350059|   -8.624896|    0.824254|    0.011997|
|        2431|   -6.350010|   -8.625415|    0.824254|    0.011997|
|        2432|   -6.350145|   -8.625844|    0.824254|    0.011997|
|        2433|   -6.350479|   -8.626194|    0.824254|    0.011997|
|        2434|   -6.351027|   -8.626478|    0.824254|    0.011997|
|        2435|   -6.351803|   -8.626710|    0.824254|    0.011997|
|        2436|   -6.352821|   -8.626906|    0.824254|    0.011997|
|        2437|   -6.354091|   -8.627083|    0.824254|    0.011997|
|        2438|   -6.355626|   -8.627256|    0.824254|    0.011997|
|        2439|   -6.357433|   -8.627444|    0.824255|    0.011997|
|        2440|   -6.359521|   -8.627663|    0.824255|    0.011997|
|        2441|   -6.361893|   -8.627929|    0.824255|    0.011997|
|        2442|   -6.364554|   -8.628259|    0.824255|    0.011997|
|        2443|   -6.367502|   -8.628666|    0.824255|    0.011997|
|        2444|   -6.370736|   -8.629165|    0.824255|    0.011997|
|        2445|   -6.374250|   -8.629767|    0.824255|    0.011997|
|        2446|   -6.378036|   -8.630482|    0.824255|    0.011997|
|        2447|   -6.382081|   -8.631320|    0.824255|    0.011997|
|        2448|   -6.386371|   -8.632285|    0.824255|    0.011997|
|        2449|   -6.390886|   -8.633385|    0.824255|    0.011997|
|        2450|   -6.395605|   -8.634623|    0.824255|    0.011997|
|        2451|   -6.400502|   -8.636001|    0.824255|    0.011998|
|        2452|   -6.405546|   -8.637518|    0.824255|    0.011998|
|        2453|   -6.410705|   -8.639175|    0.824255|    0.011998|
|        2454|   -6.415943|   -8.640968|    0.824255|    0.011998|
|        2455|   -6.421220|   -8.642894|    0.824255|    0.011998|
|        2456|   -6.426495|   -8.644949|    0.824255|    0.011998|
|        2457|   -6.431724|   -8.647128|    0.824255|    0.011998|
|        2458|   -6.436862|   -8.649426|    0.824255|    0.011998|
|        2459|   -6.441863|   -8.651839|    0.824255|    0.011998|
|        2460|   -6.446681|   -8.654360|    0.824255|    0.011998|
|        2461|   -6.451273|   -8.656985|    0.824255|    0.011998|
|        2462|   -6.455596|   -8.659708|    0.824255|    0.011998|
|        2463|   -6.459613|   -8.662524|    0.824255|    0.011999|
|        2464|   -6.463288|   -8.665429|    0.824255|    0.011999|
|        2465|   -6.466593|   -8.668417|    0.824255|    0.011999|
|        2466|   -6.469505|   -8.671484|    0.824255|    0.011999|
|        2467|   -6.472009|   -8.674625|    0.824254|    0.011999|
|        2468|   -6.474094|   -8.677837|    0.824254|    0.011999|
|        2469|   -6.475761|   -8.681116|    0.824254|    0.011999|
|        2470|   -6.477016|   -8.684458|    0.824254|    0.011999|
|        2471|   -6.477870|   -8.687860|    0.824254|    0.011999|
|        2472|   -6.478343|   -8.691318|    0.824254|    0.011999|
|        2473|   -6.478459|   -8.694829|    0.824254|    0.011999|
|        2474|   -6.478247|   -8.698388|    0.824254|    0.011999|
|        2475|   -6.477741|   -8.701990|    0.824254|    0.011999|
|        2476|   -6.476977|   -8.705629|    0.824254|    0.011999|
|        2477|   -6.475992|   -8.709300|    0.824253|    0.011999|
|        2478|   -6.474827|   -8.712996|    0.824253|    0.012000|
|        2479|   -6.473518|   -8.716711|    0.824253|    0.012000|
|        2480|   -6.472107|   -8.720440|    0.824253|    0.012000|
|        2481|   -6.470628|   -8.724177|    0.824253|    0.012000|
|        2482|   -6.469119|   -8.727917|    0.824253|    0.012000|
|        2483|   -6.467612|   -8.731654|    0.824253|    0.012000|
|        2484|   -6.466139|   -8.735384|    0.824253|    0.012000|
|        2485|   -6.464727|   -8.739102|    0.824253|    0.012000|
|        2486|   -6.463403|   -8.742804|    0.824252|    0.012000|
|        2487|   -6.462189|   -8.746486|    0.824252|    0.012000|
|        2488|   -6.461105|   -8.750146|    0.824252|    0.012000|
|        2489|   -6.460170|   -8.753781|    0.824252|    0.012000|
|        2490|   -6.459398|   -8.757390|    0.824252|    0.012000|
|        2491|   -6.458802|   -8.760972|    0.824252|    0.012000|
|        2492|   -6.458392|   -8.764528|    0.824252|    0.012000|
|        2493|   -6.458178|   -8.768059|    0.824252|    0.012000|
|        2494|   -6.458164|   -8.771568|    0.824252|    0.012000|
|        2495|   -6.458356|   -8.775056|    0.824252|    0.012000|
|        2496|   -6.458758|   -8.778528|    0.824252|    0.012000|
|        2497|   -6.459370|   -8.781987|    0.824252|    0.012000|
|        2498|   -6.460195|   -8.785439|    0.824251|    0.012000|
|        2499|   -6.461230|   -8.788886|    0.824251|    0.012000|
|        2500|   -6.462475|   -8.792333|    0.824251|    0.011999|
|        2501|   -6.463929|   -8.795784|    0.824252|    0.011985|
+-----------------------------------------------------------------------+
|Fixed CL Mode (Finite Difference)       |Value                         |
+-----------------------------------------------------------------------+
|Delta CL / Delta AoA                    |0.251644                      |
|Delta CD / Delta CL                     |0.0200495                     |
|Delta CMz / Delta CL                    |0.0165963                     |
+-----------------------------------------------------------------------+
Writing Flow Meta-Data file: flow.meta

--------------------------- Finalizing Solver ---------------------------
Deleted CNumerics container.
Deleted CIntegration container.
Deleted CSolver container.
Deleted CIteration container.
Deleted CInterface container.
Deleted CGeometry container.
Deleted CFreeFormDefBox class.
Deleted CSurfaceMovement class.
Deleted CVolumetricMovement class.
Deleted CConfig container.
Deleted nInst container.
Deleted COutput class.
-------------------------------------------------------------------------

------------------------- Exit Success (SU2_CFD) ------------------------


-------------------------------------------------------------------------
|    ___ _   _ ___                                                      |
|   / __| | | |_  )   Release 8.0.0 "Harrier"                           |
|   \__ \ |_| |/ /                                                      |
|   |___/\___//___|   Suite (Solution Exporting Code)                   |
|                                                                       |
-------------------------------------------------------------------------
| SU2 Project Website: https://su2code.github.io                        |
|                                                                       |
| The SU2 Project is maintained by the SU2 Foundation                   |
| (http://su2foundation.org)                                            |
-------------------------------------------------------------------------
| Copyright 2012-2023, SU2 Contributors                                 |
|                                                                       |
| SU2 is free software; you can redistribute it and/or                  |
| modify it under the terms of the GNU Lesser General Public            |
| License as published by the Free Software Foundation; either          |
| version 2.1 of the License, or (at your option) any later version.    |
|                                                                       |
| SU2 is distributed in the hope that it will be useful,                |
| but WITHOUT ANY WARRANTY; without even the implied warranty of        |
| MERCHANTABILITY or FITNESS FOR A PARTICULAR PURPOSE. See the GNU      |
| Lesser General Public License for more details.                       |
|                                                                       |
| You should have received a copy of the GNU Lesser General Public      |
| License along with SU2. If not, see <http://www.gnu.org/licenses/>.   |
-------------------------------------------------------------------------

----------------- Physical Case Definition ( Zone 0 ) -------------------
Input mesh file name: mesh_RAE2822_turb_deform.su2

-------------------- Output Information ( Zone 0 ) ----------------------
The tabular file format is CSV (.csv).
Flow variables file name: flow.

------------- Config File Boundary Information ( Zone 0 ) ---------------
+-----------------------------------------------------------------------+
|                        Marker Type|                        Marker Name|
+-----------------------------------------------------------------------+
|                          Far-field|                           FARFIELD|
+-----------------------------------------------------------------------+
|                     Heat flux wall|                            AIRFOIL|
+-----------------------------------------------------------------------+
Two dimensional problem.
13937 grid points before partitioning.
22842 volume elements before partitioning.
2 surface markers.
192 boundary elements in index 0 (Marker = AIRFOIL).
40 boundary elements in index 1 (Marker = FARFIELD).
Executing the partitioning functions.
Building the graph adjacency structure.
Calling ParMETIS... graph partitioning complete (831 edge cuts).
Distributing ParMETIS coloring.
Rebalancing vertices.
Rebalancing volume element connectivity.
Rebalancing markers and surface elements.
14875 vertices including ghost points. 
23674 interior elements including halo cells. 
18780 triangles.
4894 quadrilaterals.
Establishing MPI communication patterns.
Identify vertices.
Storing a mapping from global to local point index.

------------------------- Solution Postprocessing -----------------------
Reading and storing the solution from restart_flow.
Volume output fields: COORDINATES, SOLUTION
  Info: Ignoring the following screen output fields:
  RMS_DENSITY, RMS_NU_TILDE, LIFT, DRAG
Screen output fields: INNER_ITER
  Info: Ignoring the following history output groups:
  RMS_RES, AERO_COEFF
History output group(s): ITER
Warning: No (valid) fields chosen for convergence monitoring. Convergence monitoring inactive.
Warning: No (valid) fields chosen for time convergence monitoring. Time convergence monitoring inactive.
|Paraview                           |flow.vtu                           |
|Paraview surface                   |surface_flow.vtu                   |
|CSV file                           |surface_flow.csv                   |

------------------------- Finalize Solver -------------------------
Deleted CGeometry container.
Deleted CSolver class.
Deleted CConfig container.
Deleted COutput class.

Completed in 0.019317 seconds on 6 cores.

------------------------- Exit Success (SU2_SOL) ------------------------

