
-------------------------------------------------------------------------
|    ___ _   _ ___                                                      |
|   / __| | | |_  )   Release 8.0.0 "Harrier"                           |
|   \__ \ |_| |/ /                                                      |
|   |___/\___//___|   Suite (Computational Fluid Dynamics Code)         |
|                                                                       |
-------------------------------------------------------------------------
| SU2 Project Website: https://su2code.github.io                        |
|                                                                       |
| The SU2 Project is maintained by the SU2 Foundation                   |
| (http://su2foundation.org)                                            |
-------------------------------------------------------------------------
| Copyright 2012-2023, SU2 Contributors                                 |
|                                                                       |
| SU2 is free software; you can redistribute it and/or                  |
| modify it under the terms of the GNU Lesser General Public            |
| License as published by the Free Software Foundation; either          |
| version 2.1 of the License, or (at your option) any later version.    |
|                                                                       |
| SU2 is distributed in the hope that it will be useful,                |
| but WITHOUT ANY WARRANTY; without even the implied warranty of        |
| MERCHANTABILITY or FITNESS FOR A PARTICULAR PURPOSE. See the GNU      |
| Lesser General Public License for more details.                       |
|                                                                       |
| You should have received a copy of the GNU Lesser General Public      |
| License along with SU2. If not, see <http://www.gnu.org/licenses/>.   |
-------------------------------------------------------------------------

Parsing config file for zone 0

----------------- Physical Case Definition ( Zone 0 ) -------------------
Compressible RANS equations.
Turbulence model: Spalart-Allmaras-noft2
Hybrid RANS/LES: No Hybrid RANS/LES
Mach number: 0.734.
Angle of attack (AoA): 2.31 deg, and angle of sideslip (AoS): 0 deg.
Reynolds number: 6.5e+06. Reference length 1.
Fixed CL mode, target value: 0.824.
Reading and writing binary SU2 native restart files.
Read flow solution from: solution_flow.dat.
Dimensional simulation.
The reference area is 1 m^2.
The semi-span will be computed using the max y(3D) value.
The reference length is 1 m.
Reference origin for moment evaluation is (0.25, 0, 0).
Surface(s) where the force coefficients are evaluated: AIRFOIL.

Surface(s) plotted in the output file: AIRFOIL.
Surface(s) affected by the design variables: AIRFOIL.
Input mesh file name: mesh_RAE2822_turb_deform.su2

--------------- Space Numerical Integration ( Zone 0 ) ------------------
Jameson-Schmidt-Turkel scheme (2nd order in space) for the flow inviscid terms.
JST viscous coefficients (2nd & 4th): 0.5, 0.02.
The method includes a grid stretching correction (p = 0.3).
Scalar upwind solver for the turbulence model.
First order integration in space.
Average of gradients with correction (viscous flow terms).
Average of gradients with correction (viscous turbulence terms).
Gradient for viscous and source terms: inverse-distance weighted Least-Squares.

--------------- Time Numerical Integration  ( Zone 0 ) ------------------
Local time stepping (steady state simulation).
Euler implicit method for the flow equations.
FGMRES is used for solving the linear system.
Using a ILU(0) preconditioning.
Convergence criteria of the linear solver: 1e-06.
Max number of linear iterations: 10.
No CFL adaptation.
Courant-Friedrichs-Lewy number:       10
Euler implicit time integration for the turbulence model.

------------------ Convergence Criteria  ( Zone 0 ) ---------------------
Maximum number of solver subiterations: 5500.
Begin convergence monitoring at iteration 10.
Residual minimum value: 1e-12.
Cauchy series min. value: 1e-06.
Number of Cauchy elements: 100.
Begin windowed time average at iteration 0.

-------------------- Output Information ( Zone 0 ) ----------------------
File writing frequency: 
+------------------------------------+
|                     File| Frequency|
+------------------------------------+
|                  RESTART|     10000|
|                 PARAVIEW|     10000|
|         SURFACE_PARAVIEW|     10000|
|              SURFACE_CSV|     10000|
+------------------------------------+
Writing the convergence history file every 1 inner iterations.
Writing the screen convergence history every 1 inner iterations.
The tabular file format is CSV (.csv).
Convergence history file name: history_direct.
Forces breakdown file name: forces_breakdown.dat.
Surface file name: surface_flow.
Volume file name: flow.
Restart file name: restart_flow.dat.

------------- Config File Boundary Information ( Zone 0 ) ---------------
+-----------------------------------------------------------------------+
|                        Marker Type|                        Marker Name|
+-----------------------------------------------------------------------+
|                          Far-field|                           FARFIELD|
+-----------------------------------------------------------------------+
|                     Heat flux wall|                            AIRFOIL|
+-----------------------------------------------------------------------+

-------------------- Output Preprocessing ( Zone 0 ) --------------------

WARNING: SURFACE_PRESSURE_DROP can only be computed for at least 2 surfaces (outlet, inlet, ...)

Screen output fields: INNER_ITER, RMS_DENSITY, RMS_NU_TILDE, LIFT, DRAG
History output group(s): ITER, RMS_RES, AERO_COEFF
Convergence field(s): RMS_DENSITY
Warning: No (valid) fields chosen for time convergence monitoring. Time convergence monitoring inactive.
Volume output fields: COORDINATES, SOLUTION, PRIMITIVE

------------------- Geometry Preprocessing ( Zone 0 ) -------------------
Two dimensional problem.
13937 grid points before partitioning.
22842 volume elements before partitioning.
2 surface markers.
192 boundary elements in index 0 (Marker = AIRFOIL).
40 boundary elements in index 1 (Marker = FARFIELD).
Executing the partitioning functions.
Building the graph adjacency structure.
Calling ParMETIS... graph partitioning complete (831 edge cuts).
Distributing ParMETIS coloring.
Rebalancing vertices.
Rebalancing volume element connectivity.
Rebalancing markers and surface elements.
14875 vertices including ghost points. 
23674 interior elements including halo cells. 
18780 triangles.
4894 quadrilaterals.
Establishing MPI communication patterns.
Setting point connectivity.
Renumbering points (Reverse Cuthill McKee Ordering).
Recomputing point connectivity.
Setting element connectivity.
Checking the numerical grid orientation.
All volume elements are correctly orientend.
All surface elements are correctly orientend.
Identifying edges and vertices.
Setting the control volume structure.
Area of the computational grid: 32209.9.
Searching for the closest normal neighbors to the surfaces.
Storing a mapping from global to local point index.
Compute the surface curvature.
Max K: 156.933. Mean K: 7.15528. Standard deviation K: 21.0639.
Checking for periodicity.
Computing mesh quality statistics for the dual control volumes.
+--------------------------------------------------------------+
|           Mesh Quality Metric|        Minimum|        Maximum|
+--------------------------------------------------------------+
|    Orthogonality Angle (deg.)|         75.288|         89.998|
|     CV Face Area Aspect Ratio|        1.00129|        3358.35|
|           CV Sub-Volume Ratio|         1.0006|         1211.5|
+--------------------------------------------------------------+
Finding max control volume width.
Communicating number of neighbors.
Wetted area = 2.02401 m.
Area projection in the x-plane = 0.12306 m, y-plane = 0.995873 m.
Max. coordinate in the x-direction = 1 m, y-direction = 0.0631536 m.
Min. coordinate in the x-direction = 0 m, y-direction = -0.0588269 m.
Computing wall distances.

-------------------- Solver Preprocessing ( Zone 0 ) --------------------
WARNING: AoA in the solution file (2.89169 deg.) +
         AoA offset in mesh file (0 deg.) = 2.89169 deg.
WARNING: SU2 will use the dCD/dCL provided in the direct solution file: 0.0855512.
WARNING: SU2 will use the dCMz/dCL provided in the direct solution file: -0.00525904.
Viscous flow: Computing pressure using the ideal gas law
based on the free-stream temperature and a density computed
from the Reynolds number.
Force coefficients computed using free-stream values.

-- Models:
+------------------------------------------------------------------------------+
|          Viscosity Model|        Conductivity Model|              Fluid Model|
+------------------------------------------------------------------------------+
|               SUTHERLAND|          CONSTANT_PRANDTL|             STANDARD_AIR|
+------------------------------------------------------------------------------+
-- Fluid properties:
+------------------------------------------------------------------------------+
|                  Name|    Dim. value|    Ref. value|      Unit|Non-dim. value|
+------------------------------------------------------------------------------+
|        Ref. Viscosity|     1.716e-05|             1|   N.s/m^2|     1.716e-05|
|      Sutherland Temp.|        273.15|             1|         K|        273.15|
|     Sutherland Const.|         110.4|             1|         K|         110.4|
+------------------------------------------------------------------------------+
|        Prandtl (Lam.)|             -|             -|         -|          0.71|
|       Prandtl (Turb.)|             -|             -|         -|           0.9|
+------------------------------------------------------------------------------+
|          Gas Constant|       287.058|             1|  N.m/kg.K|       287.058|
|      Spec. Heat Ratio|             -|             -|         -|           1.4|
+------------------------------------------------------------------------------+
-- Initial and free-stream conditions:
+------------------------------------------------------------------------------+
|                  Name|    Dim. value|    Ref. value|      Unit|Non-dim. value|
+------------------------------------------------------------------------------+
|       Static Pressure|         38515|             1|        Pa|         38515|
|               Density|      0.465631|             1|    kg/m^3|      0.465631|
|           Temperature|        288.15|             1|         K|        288.15|
|          Total Energy|        237984|             1|   m^2/s^2|        237984|
|            Velocity-X|        249.46|             1|       m/s|        249.46|
|            Velocity-Y|       12.6008|             1|       m/s|       12.6008|
|    Velocity Magnitude|       249.778|             1|       m/s|       249.778|
+------------------------------------------------------------------------------+
|             Viscosity|    1.7893e-05|             1|   N.s/m^2|    1.7893e-05|
|          Conductivity|             -|             1|   W/m^2.K|             -|
|     Turb. Kin. Energy|       233.959|             1|   m^2/s^2|       233.959|
|     Spec. Dissipation|        608834|             1|       1/s|        608834|
+------------------------------------------------------------------------------+
|           Mach Number|             -|             -|         -|         0.734|
|       Reynolds Number|             -|             -|         -|       6.5e+06|
+------------------------------------------------------------------------------+
Initialize Jacobian structure (Navier-Stokes). MG level: 0.
Initialize Jacobian structure (SA model).

------------------- Numerics Preprocessing ( Zone 0 ) -------------------

----------------- Integration Preprocessing ( Zone 0 ) ------------------

------------------- Iteration Preprocessing ( Zone 0 ) ------------------
Euler/Navier-Stokes/RANS fluid iteration.

------------------------------ Begin Solver -----------------------------

Simulation Run using the Single-zone Driver
WARNING: SU2 was not compiled for an AVX-capable architecture. Performance could be better,
         see https://su2code.github.io/docs_v7/Build-SU2-Linux-MacOS/#compiler-optimizations
+----------------------------------------------------------------+
|  Inner_Iter|    rms[Rho]|     rms[nu]|          CL|          CD|
+----------------------------------------------------------------+
|           0|   -3.525047|   -4.715974|    0.824400|    0.017822|
|           1|   -3.578825|   -4.802590|    0.824240|    0.017615|
|           2|   -3.630228|   -4.892438|    0.823785|    0.017538|
|           3|   -3.658054|   -4.982740|    0.823265|    0.017549|
|           4|   -3.668326|   -5.074251|    0.822830|    0.017598|
|           5|   -3.668516|   -5.167688|    0.822521|    0.017646|
|           6|   -3.663579|   -5.259928|    0.822315|    0.017671|
|           7|   -3.657163|   -5.326196|    0.822169|    0.017669|
|           8|   -3.650991|   -5.337159|    0.822059|    0.017644|
|           9|   -3.645026|   -5.311969|    0.821984|    0.017606|
|          10|   -3.638470|   -5.278336|    0.821954|    0.017565|
|          11|   -3.630484|   -5.246484|    0.821980|    0.017527|
|          12|   -3.620462|   -5.218214|    0.822067|    0.017498|
|          13|   -3.608081|   -5.191087|    0.822210|    0.017481|
|          14|   -3.593332|   -5.164283|    0.822401|    0.017479|
|          15|   -3.576567|   -5.137890|    0.822624|    0.017492|
|          16|   -3.558480|   -5.111596|    0.822868|    0.017521|
|          17|   -3.539962|   -5.085208|    0.823116|    0.017563|
|          18|   -3.521882|   -5.058677|    0.823357|    0.017619|
|          19|   -3.504911|   -5.032011|    0.823577|    0.017684|
|          20|   -3.489444|   -5.005424|    0.823763|    0.017757|
|          21|   -3.475647|   -4.979351|    0.823905|    0.017832|
|          22|   -3.463397|   -4.954548|    0.823993|    0.017907|
|          23|   -3.452536|   -4.931749|    0.824019|    0.017976|
|          24|   -3.442899|   -4.911623|    0.823977|    0.018036|
|          25|   -3.434397|   -4.894735|    0.823864|    0.018083|
|          26|   -3.426997|   -4.881446|    0.823681|    0.018114|
|          27|   -3.420690|   -4.871950|    0.823431|    0.018128|
|          28|   -3.415443|   -4.866271|    0.823121|    0.018124|
|          29|   -3.411255|   -4.864357|    0.822760|    0.018101|
|          30|   -3.408044|   -4.866034|    0.822360|    0.018062|
|          31|   -3.405686|   -4.871047|    0.821933|    0.018007|
|          32|   -3.404020|   -4.879053|    0.821496|    0.017941|
|          33|   -3.402830|   -4.888094|    0.821061|    0.017865|
|          34|   -3.402004|   -4.899664|    0.820642|    0.017783|
|          35|   -3.401432|   -4.913419|    0.820251|    0.017699|
|          36|   -3.401036|   -4.927717|    0.819899|    0.017616|
|          37|   -3.400752|   -4.941498|    0.819592|    0.017537|
|          38|   -3.400579|   -4.953741|    0.819335|    0.017463|
|          39|   -3.400489|   -4.963639|    0.819130|    0.017397|
|          40|   -3.400547|   -4.970543|    0.818976|    0.017339|
|          41|   -3.400853|   -4.973899|    0.818870|    0.017290|
|          42|   -3.401492|   -4.973618|    0.818806|    0.017249|
|          43|   -3.402518|   -4.970023|    0.818779|    0.017216|
|          44|   -3.403973|   -4.963720|    0.818779|    0.017189|
|          45|   -3.405860|   -4.955353|    0.818799|    0.017168|
|          46|   -3.408234|   -4.945530|    0.818829|    0.017149|
|          47|   -3.411107|   -4.934759|    0.818863|    0.017132|
|          48|   -3.414453|   -4.923418|    0.818892|    0.017115|
|          49|   -3.418237|   -4.911770|    0.818911|    0.017096|
|          50|   -3.422426|   -4.900028|    0.818914|    0.017074|
|          51|   -3.426974|   -4.888378|    0.818900|    0.017048|
|          52|   -3.431850|   -4.877020|    0.818865|    0.017017|
|          53|   -3.437011|   -4.866162|    0.818809|    0.016982|
|          54|   -3.442439|   -4.856020|    0.818733|    0.016941|
|          55|   -3.448114|   -4.846807|    0.818640|    0.016895|
|          56|   -3.454033|   -4.838700|    0.818531|    0.016845|
|          57|   -3.460196|   -4.831819|    0.818409|    0.016791|
|          58|   -3.466601|   -4.826220|    0.818279|    0.016735|
|          59|   -3.473248|   -4.821881|    0.818144|    0.016676|
|          60|   -3.480114|   -4.818705|    0.818006|    0.016617|
|          61|   -3.487138|   -4.816546|    0.817871|    0.016557|
|          62|   -3.494343|   -4.815208|    0.817739|    0.016497|
|          63|   -3.501650|   -4.814460|    0.817614|    0.016439|
|          64|   -3.508946|   -4.814074|    0.817496|    0.016383|
|          65|   -3.516263|   -4.813829|    0.817387|    0.016328|
|          66|   -3.523588|   -4.813561|    0.817286|    0.016276|
|          67|   -3.530914|   -4.813318|    0.817194|    0.016226|
|          68|   -3.538249|   -4.812658|    0.817110|    0.016179|
|          69|   -3.545628|   -4.811708|    0.817032|    0.016134|
|          70|   -3.553085|   -4.810493|    0.816959|    0.016092|
|          71|   -3.560649|   -4.808869|    0.816889|    0.016051|
|          72|   -3.568328|   -4.807317|    0.816822|    0.016012|
|          73|   -3.576113|   -4.805625|    0.816754|    0.015975|
|          74|   -3.583969|   -4.803835|    0.816685|    0.015938|
|          75|   -3.591779|   -4.802000|    0.816613|    0.015902|
|          76|   -3.599501|   -4.800160|    0.816537|    0.015867|
|          77|   -3.607143|   -4.798345|    0.816456|    0.015832|
|          78|   -3.614663|   -4.796578|    0.816370|    0.015797|
|          79|   -3.622023|   -4.794871|    0.816279|    0.015762|
|          80|   -3.629210|   -4.793232|    0.816181|    0.015726|
|          81|   -3.636232|   -4.791671|    0.816078|    0.015691|
|          82|   -3.643107|   -4.790190|    0.815970|    0.015655|
|          83|   -3.649862|   -4.788790|    0.815858|    0.015619|
|          84|   -3.656510|   -4.787473|    0.815743|    0.015584|
|          85|   -3.663047|   -4.786231|    0.815625|    0.015548|
|          86|   -3.669453|   -4.785060|    0.815506|    0.015512|
|          87|   -3.675691|   -4.783953|    0.815386|    0.015476|
|          88|   -3.681720|   -4.782906|    0.815267|    0.015441|
|          89|   -3.687484|   -4.781917|    0.815150|    0.015406|
|          90|   -3.692933|   -4.780985|    0.815036|    0.015372|
|          91|   -3.697986|   -4.780110|    0.814925|    0.015340|
|          92|   -3.702618|   -4.779292|    0.814818|    0.015308|
|          93|   -3.706831|   -4.778535|    0.814716|    0.015278|
|          94|   -3.710616|   -4.777843|    0.814620|    0.015249|
|          95|   -3.713970|   -4.777220|    0.814528|    0.015222|
|          96|   -3.716907|   -4.776673|    0.814441|    0.015198|
|          97|   -3.719446|   -4.776206|    0.814360|    0.015175|
|          98|   -3.721610|   -4.775822|    0.814283|    0.015154|
|          99|   -3.723419|   -4.775527|    0.814211|    0.015136|
|         100|   -3.724890|   -4.775319|    0.814143|    0.015120|
|         101|   -3.726035|   -4.775212|    0.814064|    0.015807|
+-----------------------------------------------------------------------+
|Fixed CL Mode                           |Value                         |
+-----------------------------------------------------------------------+
|Current CL                              |0.814064                      |
|Target CL                               |0.824                         |
|Previous AOA                            |2.89169                       |
|Changed AoA by                          |0.0492868                     |
+-----------------------------------------------------------------------+
+----------------------------------------------------------------+
|  Inner_Iter|    rms[Rho]|     rms[nu]|          CL|          CD|
+----------------------------------------------------------------+
|         102|   -1.500623|   -4.770499|    0.814001|    0.015795|
|         103|   -1.885155|   -4.772992|    0.813940|    0.015786|
|         104|   -2.129980|   -4.773843|    0.813880|    0.015779|
|         105|   -2.209803|   -4.774449|    0.813820|    0.015774|
|         106|   -2.264157|   -4.775017|    0.813758|    0.015771|
|         107|   -2.334505|   -4.775587|    0.813696|    0.015769|
|         108|   -2.421529|   -4.776175|    0.813630|    0.015768|
|         109|   -2.512437|   -4.776771|    0.813562|    0.015769|
|         110|   -2.590406|   -4.777373|    0.813490|    0.015770|
|         111|   -2.646824|   -4.777981|    0.813414|    0.015772|
|         112|   -2.683455|   -4.778594|    0.813334|    0.015773|
|         113|   -2.704395|   -4.779211|    0.813249|    0.015775|
|         114|   -2.713659|   -4.779830|    0.813159|    0.015776|
|         115|   -2.717185|   -4.780451|    0.813066|    0.015776|
|         116|   -2.721611|   -4.781070|    0.812968|    0.015775|
|         117|   -2.731373|   -4.781678|    0.812867|    0.015774|
|         118|   -2.747486|   -4.782261|    0.812762|    0.015771|
|         119|   -2.768116|   -4.782809|    0.812655|    0.015767|
|         120|   -2.790054|   -4.783310|    0.812546|    0.015762|
|         121|   -2.810564|   -4.783756|    0.812436|    0.015756|
|         122|   -2.828720|   -4.784141|    0.812325|    0.015749|
|         123|   -2.845355|   -4.784458|    0.812215|    0.015741|
|         124|   -2.861901|   -4.784704|    0.812106|    0.015732|
|         125|   -2.879256|   -4.784879|    0.811999|    0.015723|
|         126|   -2.897393|   -4.784982|    0.811895|    0.015713|
|         127|   -2.915591|   -4.785018|    0.811795|    0.015703|
|         128|   -2.932869|   -4.784992|    0.811699|    0.015693|
|         129|   -2.948328|   -4.784908|    0.811607|    0.015684|
|         130|   -2.961349|   -4.784764|    0.811522|    0.015675|
|         131|   -2.971708|   -4.784522|    0.811442|    0.015666|
|         132|   -2.979662|   -4.784055|    0.811369|    0.015659|
|         133|   -2.985930|   -4.783934|    0.811302|    0.015652|
|         134|   -2.991548|   -4.783789|    0.811243|    0.015647|
|         135|   -2.997602|   -4.783661|    0.811191|    0.015643|
|         136|   -3.004991|   -4.783764|    0.811146|    0.015641|
|         137|   -3.014269|   -4.783715|    0.811110|    0.015639|
|         138|   -3.025587|   -4.783607|    0.811081|    0.015639|
|         139|   -3.038686|   -4.783518|    0.811060|    0.015640|
|         140|   -3.052938|   -4.783466|    0.811048|    0.015642|
|         141|   -3.067430|   -4.783461|    0.811044|    0.015646|
|         142|   -3.081133|   -4.783511|    0.811048|    0.015650|
|         143|   -3.093154|   -4.783622|    0.811061|    0.015655|
|         144|   -3.102997|   -4.783801|    0.811084|    0.015661|
|         145|   -3.110727|   -4.784057|    0.811117|    0.015668|
|         146|   -3.116931|   -4.784395|    0.811160|    0.015676|
|         147|   -3.122508|   -4.784826|    0.811215|    0.015683|
|         148|   -3.128391|   -4.785351|    0.811283|    0.015692|
|         149|   -3.135323|   -4.785978|    0.811363|    0.015700|
|         150|   -3.143739|   -4.786711|    0.811458|    0.015709|
|         151|   -3.153734|   -4.787556|    0.811568|    0.015719|
|         152|   -3.165112|   -4.788520|    0.811693|    0.015728|
|         153|   -3.177467|   -4.789601|    0.811836|    0.015738|
|         154|   -3.190291|   -4.790806|    0.811995|    0.015748|
|         155|   -3.203088|   -4.792142|    0.812173|    0.015758|
|         156|   -3.215476|   -4.793616|    0.812369|    0.015768|
|         157|   -3.227247|   -4.795236|    0.812584|    0.015779|
|         158|   -3.238390|   -4.797013|    0.812817|    0.015790|
|         159|   -3.249050|   -4.798950|    0.813069|    0.015801|
|         160|   -3.259465|   -4.801056|    0.813338|    0.015812|
|         161|   -3.269896|   -4.803330|    0.813625|    0.015824|
|         162|   -3.280564|   -4.805777|    0.813927|    0.015836|
|         163|   -3.291621|   -4.808398|    0.814244|    0.015849|
|         164|   -3.303141|   -4.811199|    0.814574|    0.015862|
|         165|   -3.315132|   -4.814181|    0.814916|    0.015875|
|         166|   -3.327554|   -4.817357|    0.815267|    0.015888|
|         167|   -3.340347|   -4.820732|    0.815626|    0.015902|
|         168|   -3.353447|   -4.824302|    0.815989|    0.015916|
|         169|   -3.366800|   -4.828061|    0.816354|    0.015929|
|         170|   -3.380363|   -4.832012|    0.816718|    0.015943|
|         171|   -3.394102|   -4.836155|    0.817079|    0.015956|
|         172|   -3.407983|   -4.840486|    0.817435|    0.015969|
|         173|   -3.421960|   -4.844996|    0.817781|    0.015981|
|         174|   -3.435975|   -4.849682|    0.818116|    0.015993|
|         175|   -3.449946|   -4.854549|    0.818437|    0.016004|
|         176|   -3.463770|   -4.859620|    0.818741|    0.016014|
|         177|   -3.477326|   -4.864855|    0.819027|    0.016023|
|         178|   -3.490482|   -4.870257|    0.819292|    0.016031|
|         179|   -3.503102|   -4.875803|    0.819534|    0.016038|
|         180|   -3.515053|   -4.881482|    0.819752|    0.016044|
|         181|   -3.526214|   -4.887297|    0.819945|    0.016048|
|         182|   -3.536485|   -4.893247|    0.820111|    0.016051|
|         183|   -3.545794|   -4.899355|    0.820251|    0.016052|
|         184|   -3.554099|   -4.905632|    0.820363|    0.016052|
|         185|   -3.561394|   -4.912065|    0.820448|    0.016051|
|         186|   -3.567708|   -4.918639|    0.820506|    0.016048|
|         187|   -3.573102|   -4.925349|    0.820537|    0.016044|
|         188|   -3.577670|   -4.932199|    0.820542|    0.016039|
|         189|   -3.581527|   -4.939191|    0.820522|    0.016032|
|         190|   -3.584805|   -4.946333|    0.820479|    0.016024|
|         191|   -3.587646|   -4.953628|    0.820412|    0.016015|
|         192|   -3.590195|   -4.961075|    0.820325|    0.016005|
|         193|   -3.592590|   -4.968679|    0.820218|    0.015994|
|         194|   -3.594961|   -4.976448|    0.820093|    0.015982|
|         195|   -3.597425|   -4.984391|    0.819952|    0.015970|
|         196|   -3.600080|   -4.992519|    0.819797|    0.015957|
|         197|   -3.603012|   -5.000840|    0.819628|    0.015943|
|         198|   -3.606287|   -5.009362|    0.819448|    0.015929|
|         199|   -3.609957|   -5.018089|    0.819259|    0.015915|
|         200|   -3.614049|   -5.027029|    0.819063|    0.015900|
|         201|   -3.618578|   -5.036182|    0.818853|    0.016238|
+-----------------------------------------------------------------------+
|Fixed CL Mode                           |Value                         |
+-----------------------------------------------------------------------+
|Current CL                              |0.818853                      |
|Target CL                               |0.824                         |
|Previous AOA                            |2.94098                       |
|Changed AoA by                          |0.0246867                     |
+-----------------------------------------------------------------------+
+----------------------------------------------------------------+
|  Inner_Iter|    rms[Rho]|     rms[nu]|          CL|          CD|
+----------------------------------------------------------------+
|         202|   -1.800778|   -5.041267|    0.818646|    0.016224|
|         203|   -2.183677|   -5.052884|    0.818436|    0.016209|
|         204|   -2.423301|   -5.063245|    0.818225|    0.016194|
|         205|   -2.499974|   -5.073584|    0.818013|    0.016180|
|         206|   -2.553046|   -5.084049|    0.817804|    0.016166|
|         207|   -2.622204|   -5.094636|    0.817597|    0.016152|
|         208|   -2.707825|   -5.105353|    0.817394|    0.016139|
|         209|   -2.797831|   -5.116182|    0.817196|    0.016127|
|         210|   -2.876761|   -5.127107|    0.817005|    0.016115|
|         211|   -2.936587|   -5.138103|    0.816821|    0.016103|
|         212|   -2.978181|   -5.149146|    0.816645|    0.016093|
|         213|   -3.004204|   -5.160214|    0.816479|    0.016083|
|         214|   -3.017485|   -5.171287|    0.816323|    0.016074|
|         215|   -3.023499|   -5.182341|    0.816178|    0.016066|
|         216|   -3.029166|   -5.193357|    0.816044|    0.016059|
|         217|   -3.039460|   -5.204308|    0.815923|    0.016053|
|         218|   -3.055857|   -5.215178|    0.815815|    0.016047|
|         219|   -3.076844|   -5.225994|    0.815720|    0.016043|
|         220|   -3.099449|   -5.236722|    0.815639|    0.016040|
|         221|   -3.121111|   -5.247355|    0.815573|    0.016037|
|         222|   -3.140996|   -5.257885|    0.815520|    0.016036|
|         223|   -3.159939|   -5.268338|    0.815483|    0.016036|
|         224|   -3.179277|   -5.278658|    0.815460|    0.016036|
|         225|   -3.199718|   -5.288854|    0.815452|    0.016038|
|         226|   -3.220939|   -5.298918|    0.815459|    0.016040|
|         227|   -3.241837|   -5.308840|    0.815480|    0.016044|
|         228|   -3.261044|   -5.318614|    0.815517|    0.016048|
|         229|   -3.277390|   -5.328245|    0.815568|    0.016053|
|         230|   -3.290197|   -5.337747|    0.815633|    0.016059|
|         231|   -3.299424|   -5.347137|    0.815713|    0.016066|
|         232|   -3.305679|   -5.356400|    0.815806|    0.016073|
|         233|   -3.310083|   -5.365540|    0.815913|    0.016081|
|         234|   -3.313993|   -5.374565|    0.816032|    0.016090|
|         235|   -3.318678|   -5.383486|    0.816164|    0.016100|
|         236|   -3.325074|   -5.392292|    0.816308|    0.016110|
|         237|   -3.333661|   -5.400978|    0.816463|    0.016120|
|         238|   -3.344442|   -5.409526|    0.816628|    0.016131|
|         239|   -3.356973|   -5.417973|    0.816804|    0.016142|
|         240|   -3.370421|   -5.426324|    0.816988|    0.016154|
|         241|   -3.383689|   -5.434463|    0.817181|    0.016166|
|         242|   -3.395624|   -5.442386|    0.817382|    0.016178|
|         243|   -3.405305|   -5.450140|    0.817589|    0.016190|
|         244|   -3.412331|   -5.457697|    0.817803|    0.016202|
|         245|   -3.416942|   -5.465038|    0.818023|    0.016214|
|         246|   -3.419916|   -5.472162|    0.818247|    0.016226|
|         247|   -3.422292|   -5.479063|    0.818476|    0.016238|
|         248|   -3.425068|   -5.485766|    0.818709|    0.016250|
|         249|   -3.428985|   -5.492286|    0.818946|    0.016262|
|         250|   -3.434432|   -5.498643|    0.819185|    0.016274|
|         251|   -3.441455|   -5.504848|    0.819428|    0.016285|
|         252|   -3.449822|   -5.510895|    0.819673|    0.016296|
|         253|   -3.459122|   -5.516788|    0.819921|    0.016307|
|         254|   -3.468879|   -5.522540|    0.820171|    0.016317|
|         255|   -3.478657|   -5.528163|    0.820423|    0.016327|
|         256|   -3.488148|   -5.533691|    0.820677|    0.016337|
|         257|   -3.497219|   -5.539125|    0.820933|    0.016346|
|         258|   -3.505906|   -5.544489|    0.821190|    0.016355|
|         259|   -3.514375|   -5.549726|    0.821449|    0.016363|
|         260|   -3.522859|   -5.554781|    0.821710|    0.016372|
|         261|   -3.531595|   -5.559652|    0.821972|    0.016379|
|         262|   -3.540776|   -5.564341|    0.822235|    0.016387|
|         263|   -3.550532|   -5.568870|    0.822499|    0.016394|
|         264|   -3.560923|   -5.573230|    0.822763|    0.016400|
|         265|   -3.571955|   -5.577421|    0.823028|    0.016407|
|         266|   -3.583599|   -5.581460|    0.823293|    0.016413|
|         267|   -3.595811|   -5.585350|    0.823557|    0.016418|
|         268|   -3.608545|   -5.589085|    0.823820|    0.016423|
|         269|   -3.621764|   -5.592712|    0.824082|    0.016428|
|         270|   -3.635442|   -5.596239|    0.824341|    0.016433|
|         271|   -3.649554|   -5.599703|    0.824597|    0.016437|
|         272|   -3.664075|   -5.603147|    0.824850|    0.016441|
|         273|   -3.678962|   -5.606676|    0.825098|    0.016445|
|         274|   -3.694153|   -5.610298|    0.825341|    0.016449|
|         275|   -3.709555|   -5.613984|    0.825578|    0.016452|
|         276|   -3.725049|   -5.617758|    0.825808|    0.016455|
|         277|   -3.740480|   -5.621639|    0.826031|    0.016458|
|         278|   -3.755670|   -5.625620|    0.826245|    0.016461|
|         279|   -3.770420|   -5.629698|    0.826451|    0.016463|
|         280|   -3.784516|   -5.633861|    0.826647|    0.016466|
|         281|   -3.797743|   -5.638081|    0.826833|    0.016468|
|         282|   -3.809898|   -5.642360|    0.827008|    0.016470|
|         283|   -3.820796|   -5.646608|    0.827173|    0.016472|
|         284|   -3.830290|   -5.650770|    0.827326|    0.016474|
|         285|   -3.838281|   -5.654816|    0.827467|    0.016476|
|         286|   -3.844719|   -5.658663|    0.827597|    0.016477|
|         287|   -3.849617|   -5.662217|    0.827715|    0.016479|
|         288|   -3.853040|   -5.665415|    0.827820|    0.016481|
|         289|   -3.855102|   -5.668214|    0.827915|    0.016482|
|         290|   -3.855954|   -5.670595|    0.827997|    0.016483|
|         291|   -3.855772|   -5.672553|    0.828068|    0.016484|
|         292|   -3.854744|   -5.674106|    0.828128|    0.016486|
|         293|   -3.853059|   -5.675293|    0.828177|    0.016486|
|         294|   -3.850895|   -5.676162|    0.828216|    0.016487|
|         295|   -3.848418|   -5.676775|    0.828245|    0.016488|
|         296|   -3.845775|   -5.677194|    0.828264|    0.016488|
|         297|   -3.843090|   -5.677452|    0.828275|    0.016488|
|         298|   -3.840471|   -5.677514|    0.828277|    0.016488|
|         299|   -3.838005|   -5.677158|    0.828272|    0.016488|
|         300|   -3.835762|   -5.676042|    0.828260|    0.016487|
|         301|   -3.833796|   -5.674210|    0.828248|    0.016178|
+-----------------------------------------------------------------------+
|Fixed CL Mode                           |Value                         |
+-----------------------------------------------------------------------+
|Current CL                              |0.828248                      |
|Target CL                               |0.824                         |
|Previous AOA                            |2.96566                       |
|Changed AoA by                          |-0.0213011                    |
+-----------------------------------------------------------------------+
+----------------------------------------------------------------+
|  Inner_Iter|    rms[Rho]|     rms[nu]|          CL|          CD|
+----------------------------------------------------------------+
|         302|   -1.864954|   -5.623534|    0.828225|    0.016176|
|         303|   -2.250329|   -5.647025|    0.828196|    0.016175|
|         304|   -2.498213|   -5.654980|    0.828164|    0.016172|
|         305|   -2.579996|   -5.660712|    0.828129|    0.016170|
|         306|   -2.635023|   -5.666115|    0.828092|    0.016167|
|         307|   -2.705808|   -5.671410|    0.828053|    0.016164|
|         308|   -2.793124|   -5.676521|    0.828014|    0.016160|
|         309|   -2.883540|   -5.681347|    0.827974|    0.016156|
|         310|   -2.959307|   -5.685803|    0.827936|    0.016151|
|         311|   -3.011762|   -5.689783|    0.827900|    0.016146|
|         312|   -3.043713|   -5.693238|    0.827866|    0.016141|
|         313|   -3.060478|   -5.696181|    0.827836|    0.016136|
|         314|   -3.066851|   -5.698659|    0.827810|    0.016130|
|         315|   -3.068818|   -5.700713|    0.827789|    0.016125|
|         316|   -3.072541|   -5.702316|    0.827773|    0.016119|
|         317|   -3.081913|   -5.703447|    0.827763|    0.016113|
|         318|   -3.097599|   -5.704066|    0.827760|    0.016107|
|         319|   -3.117587|   -5.704213|    0.827765|    0.016101|
|         320|   -3.138614|   -5.703933|    0.827776|    0.016095|
|         321|   -3.157944|   -5.703264|    0.827796|    0.016090|
|         322|   -3.174660|   -5.702328|    0.827824|    0.016084|
|         323|   -3.189609|   -5.701138|    0.827860|    0.016079|
|         324|   -3.204260|   -5.699734|    0.827904|    0.016074|
|         325|   -3.219622|   -5.698196|    0.827957|    0.016070|
|         326|   -3.235860|   -5.696613|    0.828018|    0.016066|
|         327|   -3.252496|   -5.695096|    0.828087|    0.016062|
|         328|   -3.268773|   -5.693709|    0.828163|    0.016058|
|         329|   -3.283932|   -5.692515|    0.828247|    0.016055|
|         330|   -3.297361|   -5.691582|    0.828338|    0.016053|
|         331|   -3.308711|   -5.690972|    0.828435|    0.016051|
|         332|   -3.318009|   -5.690739|    0.828537|    0.016049|
|         333|   -3.325719|   -5.690926|    0.828645|    0.016048|
|         334|   -3.332653|   -5.691552|    0.828756|    0.016047|
|         335|   -3.339765|   -5.692612|    0.828871|    0.016047|
|         336|   -3.347908|   -5.694207|    0.828988|    0.016046|
|         337|   -3.357678|   -5.696199|    0.829106|    0.016046|
|         338|   -3.369319|   -5.698564|    0.829225|    0.016047|
|         339|   -3.382702|   -5.701256|    0.829344|    0.016047|
|         340|   -3.397347|   -5.704193|    0.829461|    0.016048|
|         341|   -3.412489|   -5.707317|    0.829577|    0.016048|
|         342|   -3.427215|   -5.710572|    0.829689|    0.016049|
|         343|   -3.440686|   -5.713903|    0.829797|    0.016050|
|         344|   -3.452373|   -5.717256|    0.829901|    0.016050|
|         345|   -3.462227|   -5.720594|    0.829998|    0.016050|
|         346|   -3.470681|   -5.723858|    0.830089|    0.016050|
|         347|   -3.478490|   -5.727021|    0.830173|    0.016050|
|         348|   -3.486491|   -5.730063|    0.830249|    0.016049|
|         349|   -3.495383|   -5.732965|    0.830315|    0.016048|
|         350|   -3.505593|   -5.735731|    0.830373|    0.016046|
|         351|   -3.517233|   -5.738380|    0.830420|    0.016044|
|         352|   -3.530122|   -5.740936|    0.830457|    0.016041|
|         353|   -3.543859|   -5.743435|    0.830482|    0.016038|
|         354|   -3.557926|   -5.745913|    0.830497|    0.016034|
|         355|   -3.571800|   -5.748414|    0.830501|    0.016029|
|         356|   -3.585062|   -5.750989|    0.830493|    0.016024|
|         357|   -3.597470|   -5.753700|    0.830474|    0.016018|
|         358|   -3.608984|   -5.756594|    0.830445|    0.016011|
|         359|   -3.619738|   -5.759721|    0.830405|    0.016004|
|         360|   -3.629972|   -5.763138|    0.830355|    0.015996|
|         361|   -3.639959|   -5.766872|    0.830296|    0.015987|
|         362|   -3.649940|   -5.770937|    0.830229|    0.015979|
|         363|   -3.660090|   -5.775364|    0.830154|    0.015969|
|         364|   -3.670508|   -5.780118|    0.830073|    0.015960|
|         365|   -3.681229|   -5.785185|    0.829986|    0.015950|
|         366|   -3.692244|   -5.790540|    0.829895|    0.015940|
|         367|   -3.703526|   -5.796125|    0.829802|    0.015930|
|         368|   -3.715046|   -5.801883|    0.829706|    0.015920|
|         369|   -3.726790|   -5.807741|    0.829611|    0.015910|
|         370|   -3.738753|   -5.813602|    0.829516|    0.015901|
|         371|   -3.750941|   -5.819380|    0.829424|    0.015892|
|         372|   -3.763360|   -5.824927|    0.829336|    0.015883|
|         373|   -3.776006|   -5.830115|    0.829254|    0.015875|
|         374|   -3.788861|   -5.834816|    0.829177|    0.015867|
|         375|   -3.801889|   -5.838906|    0.829109|    0.015861|
|         376|   -3.815031|   -5.842284|    0.829049|    0.015855|
|         377|   -3.828216|   -5.844883|    0.828999|    0.015849|
|         378|   -3.841356|   -5.846653|    0.828960|    0.015845|
|         379|   -3.854359|   -5.847606|    0.828931|    0.015842|
|         380|   -3.867126|   -5.847777|    0.828915|    0.015839|
|         381|   -3.879560|   -5.847236|    0.828911|    0.015838|
|         382|   -3.891567|   -5.846085|    0.828920|    0.015838|
|         383|   -3.903061|   -5.844464|    0.828941|    0.015839|
|         384|   -3.913965|   -5.842520|    0.828975|    0.015840|
|         385|   -3.924212|   -5.840415|    0.829021|    0.015843|
|         386|   -3.933753|   -5.838313|    0.829080|    0.015847|
|         387|   -3.942553|   -5.836394|    0.829150|    0.015851|
|         388|   -3.950599|   -5.834783|    0.829232|    0.015857|
|         389|   -3.957894|   -5.833597|    0.829325|    0.015863|
|         390|   -3.964459|   -5.832914|    0.829428|    0.015870|
|         391|   -3.970333|   -5.832849|    0.829540|    0.015878|
|         392|   -3.975567|   -5.833468|    0.829661|    0.015887|
|         393|   -3.980222|   -5.834799|    0.829789|    0.015896|
|         394|   -3.984364|   -5.836886|    0.829925|    0.015906|
|         395|   -3.988061|   -5.839751|    0.830067|    0.015916|
|         396|   -3.991378|   -5.843392|    0.830214|    0.015926|
|         397|   -3.994378|   -5.847788|    0.830366|    0.015937|
|         398|   -3.997115|   -5.852899|    0.830521|    0.015948|
|         399|   -3.999637|   -5.858668|    0.830680|    0.015960|
|         400|   -4.001985|   -5.865020|    0.830841|    0.015972|
|         401|   -4.004190|   -5.871868|    0.831013|    0.015487|
+-----------------------------------------------------------------------+
|Fixed CL Mode                           |Value                         |
+-----------------------------------------------------------------------+
|Current CL                              |0.831013                      |
|Target CL                               |0.824                         |
|Previous AOA                            |2.94436                       |
|Changed AoA by                          |-0.0342056                    |
+-----------------------------------------------------------------------+
+----------------------------------------------------------------+
|  Inner_Iter|    rms[Rho]|     rms[nu]|          CL|          CD|
+----------------------------------------------------------------+
|         402|   -1.659225|   -5.660621|    0.831177|    0.015499|
|         403|   -2.043254|   -5.749426|    0.831341|    0.015511|
|         404|   -2.286606|   -5.786657|    0.831505|    0.015523|
|         405|   -2.365702|   -5.811489|    0.831669|    0.015535|
|         406|   -2.419922|   -5.832008|    0.831831|    0.015547|
|         407|   -2.490219|   -5.849757|    0.831992|    0.015559|
|         408|   -2.577236|   -5.865120|    0.832151|    0.015571|
|         409|   -2.668406|   -5.878314|    0.832307|    0.015583|
|         410|   -2.747211|   -5.889202|    0.832461|    0.015595|
|         411|   -2.805057|   -5.897612|    0.832612|    0.015606|
|         412|   -2.843363|   -5.903751|    0.832759|    0.015618|
|         413|   -2.865807|   -5.908037|    0.832902|    0.015629|
|         414|   -2.876125|   -5.911221|    0.833042|    0.015640|
|         415|   -2.880229|   -5.913918|    0.833177|    0.015651|
|         416|   -2.884933|   -5.916366|    0.833308|    0.015661|
|         417|   -2.894870|   -5.918605|    0.833434|    0.015671|
|         418|   -2.911189|   -5.920620|    0.833555|    0.015682|
|         419|   -2.932112|   -5.922516|    0.833670|    0.015691|
|         420|   -2.954449|   -5.924415|    0.833781|    0.015701|
|         421|   -2.975465|   -5.926454|    0.833886|    0.015710|
|         422|   -2.994240|   -5.928618|    0.833985|    0.015719|
|         423|   -3.011629|   -5.930792|    0.834079|    0.015728|
|         424|   -3.029075|   -5.932837|    0.834167|    0.015736|
|         425|   -3.047460|   -5.934651|    0.834249|    0.015744|
|         426|   -3.066700|   -5.936110|    0.834325|    0.015752|
|         427|   -3.085974|   -5.937162|    0.834395|    0.015760|
|         428|   -3.104178|   -5.937828|    0.834458|    0.015767|
|         429|   -3.120302|   -5.938151|    0.834515|    0.015773|
|         430|   -3.133655|   -5.938108|    0.834566|    0.015780|
|         431|   -3.144001|   -5.937784|    0.834610|    0.015786|
|         432|   -3.151649|   -5.937268|    0.834647|    0.015792|
|         433|   -3.157418|   -5.936602|    0.834678|    0.015797|
|         434|   -3.162450|   -5.935654|    0.834701|    0.015802|
|         435|   -3.167923|   -5.934628|    0.834717|    0.015806|
|         436|   -3.174787|   -5.933523|    0.834726|    0.015810|
|         437|   -3.183611|   -5.932308|    0.834728|    0.015814|
|         438|   -3.194530|   -5.931031|    0.834723|    0.015818|
|         439|   -3.207249|   -5.929696|    0.834710|    0.015821|
|         440|   -3.221089|   -5.928162|    0.834690|    0.015823|
|         441|   -3.235087|   -5.926451|    0.834663|    0.015826|
|         442|   -3.248174|   -5.924570|    0.834628|    0.015827|
|         443|   -3.259445|   -5.922589|    0.834586|    0.015829|
|         444|   -3.268425|   -5.920498|    0.834537|    0.015830|
|         445|   -3.275231|   -5.918438|    0.834480|    0.015830|
|         446|   -3.280512|   -5.916472|    0.834415|    0.015831|
|         447|   -3.285219|   -5.914570|    0.834342|    0.015830|
|         448|   -3.290316|   -5.912783|    0.834260|    0.015829|
|         449|   -3.296557|   -5.911068|    0.834170|    0.015828|
|         450|   -3.304370|   -5.909506|    0.834072|    0.015826|
|         451|   -3.313844|   -5.908109|    0.833964|    0.015823|
|         452|   -3.324771|   -5.906924|    0.833847|    0.015820|
|         453|   -3.336741|   -5.905940|    0.833721|    0.015817|
|         454|   -3.349246|   -5.905156|    0.833585|    0.015812|
|         455|   -3.361798|   -5.904591|    0.833439|    0.015807|
|         456|   -3.374023|   -5.904236|    0.833284|    0.015801|
|         457|   -3.385728|   -5.904178|    0.833119|    0.015795|
|         458|   -3.396910|   -5.904392|    0.832945|    0.015788|
|         459|   -3.407723|   -5.904985|    0.832762|    0.015780|
|         460|   -3.418415|   -5.906044|    0.832570|    0.015772|
|         461|   -3.429250|   -5.907483|    0.832370|    0.015763|
|         462|   -3.440460|   -5.909380|    0.832162|    0.015754|
|         463|   -3.452206|   -5.911799|    0.831948|    0.015744|
|         464|   -3.464575|   -5.914802|    0.831728|    0.015733|
|         465|   -3.477592|   -5.918375|    0.831504|    0.015722|
|         466|   -3.491238|   -5.922589|    0.831276|    0.015710|
|         467|   -3.505475|   -5.927526|    0.831046|    0.015699|
|         468|   -3.520263|   -5.933181|    0.830815|    0.015686|
|         469|   -3.535577|   -5.939532|    0.830585|    0.015674|
|         470|   -3.551402|   -5.946530|    0.830357|    0.015662|
|         471|   -3.567736|   -5.954193|    0.830133|    0.015649|
|         472|   -3.584576|   -5.962494|    0.829915|    0.015637|
|         473|   -3.601910|   -5.971285|    0.829704|    0.015624|
|         474|   -3.619705|   -5.980435|    0.829502|    0.015612|
|         475|   -3.637899|   -5.989534|    0.829310|    0.015600|
|         476|   -3.656404|   -5.998324|    0.829131|    0.015588|
|         477|   -3.675094|   -6.006379|    0.828964|    0.015576|
|         478|   -3.693816|   -6.013273|    0.828812|    0.015565|
|         479|   -3.712391|   -6.018493|    0.828675|    0.015554|
|         480|   -3.730616|   -6.021623|    0.828555|    0.015544|
|         481|   -3.748278|   -6.022317|    0.828453|    0.015534|
|         482|   -3.765158|   -6.020309|    0.828368|    0.015525|
|         483|   -3.781044|   -6.015478|    0.828302|    0.015516|
|         484|   -3.795744|   -6.007945|    0.828256|    0.015508|
|         485|   -3.809097|   -5.998076|    0.828228|    0.015500|
|         486|   -3.820988|   -5.986353|    0.828219|    0.015493|
|         487|   -3.831355|   -5.973281|    0.828229|    0.015486|
|         488|   -3.840198|   -5.959468|    0.828257|    0.015479|
|         489|   -3.847571|   -5.945452|    0.828303|    0.015474|
|         490|   -3.853586|   -5.931697|    0.828367|    0.015468|
|         491|   -3.858394|   -5.918598|    0.828448|    0.015464|
|         492|   -3.862174|   -5.906469|    0.828544|    0.015459|
|         493|   -3.865119|   -5.895551|    0.828656|    0.015455|
|         494|   -3.867421|   -5.886029|    0.828782|    0.015452|
|         495|   -3.869265|   -5.878039|    0.828920|    0.015449|
|         496|   -3.870816|   -5.871684|    0.829071|    0.015446|
|         497|   -3.872218|   -5.867034|    0.829233|    0.015444|
|         498|   -3.873592|   -5.864131|    0.829405|    0.015442|
|         499|   -3.875035|   -5.862994|    0.829586|    0.015441|
|         500|   -3.876620|   -5.863620|    0.829774|    0.015440|
|         501|   -3.878403|   -5.865989|    0.829977|    0.015021|
+-----------------------------------------------------------------------+
|Fixed CL Mode                           |Value                         |
+-----------------------------------------------------------------------+
|Current CL                              |0.829977                      |
|Target CL                               |0.824                         |
|Previous AOA                            |2.91016                       |
|Changed AoA by                          |-0.0288723                    |
+-----------------------------------------------------------------------+
+----------------------------------------------------------------+
|  Inner_Iter|    rms[Rho]|     rms[nu]|          CL|          CD|
+----------------------------------------------------------------+
|         502|   -1.732827|   -5.698771|    0.830178|    0.015020|
|         503|   -2.116255|   -5.772247|    0.830383|    0.015021|
|         504|   -2.357476|   -5.802908|    0.830592|    0.015021|
|         505|   -2.435192|   -5.824694|    0.830802|    0.015022|
|         506|   -2.488878|   -5.844107|    0.831015|    0.015024|
|         507|   -2.558762|   -5.862467|    0.831227|    0.015025|
|         508|   -2.645377|   -5.880030|    0.831438|    0.015028|
|         509|   -2.736491|   -5.896817|    0.831648|    0.015030|
|         510|   -2.816153|   -5.912512|    0.831855|    0.015034|
|         511|   -2.875917|   -5.926649|    0.832058|    0.015037|
|         512|   -2.916698|   -5.938818|    0.832257|    0.015041|
|         513|   -2.941480|   -5.948877|    0.832450|    0.015045|
|         514|   -2.953484|   -5.956945|    0.832637|    0.015050|
|         515|   -2.958497|   -5.963105|    0.832817|    0.015055|
|         516|   -2.963545|   -5.967241|    0.832989|    0.015060|
|         517|   -2.973546|   -5.969134|    0.833153|    0.015066|
|         518|   -2.989851|   -5.968732|    0.833307|    0.015071|
|         519|   -3.010804|   -5.966214|    0.833453|    0.015077|
|         520|   -3.033290|   -5.961958|    0.833588|    0.015083|
|         521|   -3.054622|   -5.956325|    0.833712|    0.015090|
|         522|   -3.073913|   -5.949646|    0.833826|    0.015096|
|         523|   -3.092011|   -5.942193|    0.833929|    0.015102|
|         524|   -3.110322|   -5.934129|    0.834020|    0.015109|
|         525|   -3.129651|   -5.925650|    0.834101|    0.015115|
|         526|   -3.149800|   -5.916954|    0.834170|    0.015122|
|         527|   -3.169810|   -5.908234|    0.834227|    0.015128|
|         528|   -3.188456|   -5.899726|    0.834273|    0.015135|
|         529|   -3.204656|   -5.891545|    0.834308|    0.015141|
|         530|   -3.217726|   -5.883844|    0.834332|    0.015147|
|         531|   -3.227514|   -5.876737|    0.834345|    0.015153|
|         532|   -3.234459|   -5.870222|    0.834347|    0.015159|
|         533|   -3.239514|   -5.864310|    0.834339|    0.015165|
|         534|   -3.243922|   -5.859025|    0.834320|    0.015171|
|         535|   -3.248902|   -5.854368|    0.834291|    0.015177|
|         536|   -3.255401|   -5.850242|    0.834253|    0.015183|
|         537|   -3.263946|   -5.846588|    0.834206|    0.015188|
|         538|   -3.274609|   -5.843302|    0.834150|    0.015194|
|         539|   -3.287019|   -5.840349|    0.834085|    0.015199|
|         540|   -3.300422|   -5.837566|    0.834013|    0.015205|
|         541|   -3.313785|   -5.834883|    0.833933|    0.015210|
|         542|   -3.325999|   -5.832306|    0.833846|    0.015216|
|         543|   -3.336156|   -5.829809|    0.833752|    0.015222|
|         544|   -3.343828|   -5.827353|    0.833651|    0.015227|
|         545|   -3.349205|   -5.824938|    0.833544|    0.015233|
|         546|   -3.353011|   -5.822554|    0.833431|    0.015238|
|         547|   -3.356247|   -5.820208|    0.833312|    0.015244|
|         548|   -3.359896|   -5.817951|    0.833187|    0.015249|
|         549|   -3.364702|   -5.815708|    0.833056|    0.015255|
|         550|   -3.371070|   -5.813452|    0.832919|    0.015260|
|         551|   -3.379061|   -5.811162|    0.832776|    0.015266|
|         552|   -3.388454|   -5.808849|    0.832627|    0.015271|
|         553|   -3.398837|   -5.806515|    0.832471|    0.015277|
|         554|   -3.409719|   -5.804117|    0.832309|    0.015282|
|         555|   -3.420644|   -5.801650|    0.832140|    0.015287|
|         556|   -3.431279|   -5.799087|    0.831965|    0.015292|
|         557|   -3.441467|   -5.796457|    0.831783|    0.015297|
|         558|   -3.451230|   -5.793740|    0.831595|    0.015301|
|         559|   -3.460734|   -5.790965|    0.831400|    0.015305|
|         560|   -3.470221|   -5.788183|    0.831199|    0.015309|
|         561|   -3.479942|   -5.785379|    0.830993|    0.015313|
|         562|   -3.490112|   -5.782572|    0.830781|    0.015316|
|         563|   -3.500880|   -5.779780|    0.830564|    0.015319|
|         564|   -3.512324|   -5.777050|    0.830343|    0.015322|
|         565|   -3.524466|   -5.774437|    0.830118|    0.015325|
|         566|   -3.537291|   -5.771995|    0.829890|    0.015327|
|         567|   -3.550768|   -5.769784|    0.829661|    0.015329|
|         568|   -3.564866|   -5.767864|    0.829431|    0.015330|
|         569|   -3.579566|   -5.766310|    0.829201|    0.015331|
|         570|   -3.594862|   -5.765164|    0.828972|    0.015332|
|         571|   -3.610757|   -5.764433|    0.828746|    0.015333|
|         572|   -3.627252|   -5.764157|    0.828525|    0.015333|
|         573|   -3.644342|   -5.764304|    0.828308|    0.015333|
|         574|   -3.662000|   -5.764908|    0.828098|    0.015333|
|         575|   -3.680173|   -5.765865|    0.827896|    0.015333|
|         576|   -3.698778|   -5.767132|    0.827704|    0.015333|
|         577|   -3.717698|   -5.768624|    0.827521|    0.015332|
|         578|   -3.736782|   -5.770250|    0.827351|    0.015332|
|         579|   -3.755849|   -5.771896|    0.827192|    0.015331|
|         580|   -3.774687|   -5.773445|    0.827047|    0.015330|
|         581|   -3.793061|   -5.774794|    0.826917|    0.015329|
|         582|   -3.810722|   -5.775812|    0.826801|    0.015328|
|         583|   -3.827411|   -5.776367|    0.826701|    0.015326|
|         584|   -3.842880|   -5.776353|    0.826617|    0.015325|
|         585|   -3.856905|   -5.775700|    0.826549|    0.015324|
|         586|   -3.869303|   -5.774342|    0.826497|    0.015322|
|         587|   -3.879950|   -5.772245|    0.826462|    0.015320|
|         588|   -3.888791|   -5.769472|    0.826443|    0.015319|
|         589|   -3.895846|   -5.766077|    0.826440|    0.015317|
|         590|   -3.901207|   -5.762127|    0.826452|    0.015315|
|         591|   -3.905025|   -5.757586|    0.826480|    0.015312|
|         592|   -3.907496|   -5.753133|    0.826523|    0.015310|
|         593|   -3.908843|   -5.748739|    0.826580|    0.015308|
|         594|   -3.909297|   -5.744379|    0.826650|    0.015305|
|         595|   -3.909083|   -5.740068|    0.826733|    0.015302|
|         596|   -3.908411|   -5.736050|    0.826828|    0.015300|
|         597|   -3.907466|   -5.732456|    0.826935|    0.015297|
|         598|   -3.906409|   -5.729379|    0.827051|    0.015294|
|         599|   -3.905372|   -5.726895|    0.827177|    0.015291|
|         600|   -3.904465|   -5.725053|    0.827311|    0.015288|
|         601|   -3.903772|   -5.723884|    0.827457|    0.015046|
+-----------------------------------------------------------------------+
|Fixed CL Mode                           |Value                         |
+-----------------------------------------------------------------------+
|Current CL                              |0.827457                      |
|Target CL                               |0.824                         |
|Previous AOA                            |2.88129                       |
|Changed AoA by                          |-0.0165554                    |
+-----------------------------------------------------------------------+
+----------------------------------------------------------------+
|  Inner_Iter|    rms[Rho]|     rms[nu]|          CL|          CD|
+----------------------------------------------------------------+
|         602|   -1.974361|   -5.683161|    0.827605|    0.015043|
|         603|   -2.357211|   -5.702456|    0.827759|    0.015040|
|         604|   -2.596221|   -5.709107|    0.827918|    0.015038|
|         605|   -2.672337|   -5.713655|    0.828080|    0.015035|
|         606|   -2.725245|   -5.717743|    0.828245|    0.015032|
|         607|   -2.794433|   -5.721670|    0.828411|    0.015029|
|         608|   -2.880260|   -5.725470|    0.828578|    0.015027|
|         609|   -2.970796|   -5.729111|    0.828745|    0.015024|
|         610|   -3.050721|   -5.732522|    0.828911|    0.015022|
|         611|   -3.111898|   -5.735600|    0.829075|    0.015020|
|         612|   -3.154870|   -5.738240|    0.829236|    0.015018|
|         613|   -3.181956|   -5.740384|    0.829393|    0.015016|
|         614|   -3.195788|   -5.741991|    0.829546|    0.015014|
|         615|   -3.201897|   -5.742834|    0.829693|    0.015012|
|         616|   -3.207414|   -5.743379|    0.829835|    0.015011|
|         617|   -3.217497|   -5.743412|    0.829969|    0.015009|
|         618|   -3.233712|   -5.742992|    0.830097|    0.015008|
|         619|   -3.254559|   -5.741905|    0.830217|    0.015006|
|         620|   -3.277046|   -5.740282|    0.830328|    0.015005|
|         621|   -3.298588|   -5.738223|    0.830431|    0.015003|
|         622|   -3.318346|   -5.735829|    0.830526|    0.015002|
|         623|   -3.337158|   -5.733198|    0.830611|    0.015000|
|         624|   -3.356364|   -5.730434|    0.830687|    0.014999|
|         625|   -3.376666|   -5.727623|    0.830753|    0.014997|
|         626|   -3.397729|   -5.724830|    0.830810|    0.014995|
|         627|   -3.418448|   -5.722135|    0.830857|    0.014994|
|         628|   -3.437466|   -5.719609|    0.830896|    0.014992|
|         629|   -3.453634|   -5.717322|    0.830925|    0.014990|
|         630|   -3.466298|   -5.715337|    0.830945|    0.014988|
|         631|   -3.475422|   -5.713722|    0.830956|    0.014987|
|         632|   -3.481606|   -5.712452|    0.830959|    0.014985|
|         633|   -3.485952|   -5.711529|    0.830954|    0.014983|
|         634|   -3.489794|   -5.710939|    0.830940|    0.014981|
|         635|   -3.494384|   -5.710683|    0.830920|    0.014979|
|         636|   -3.500640|   -5.710741|    0.830892|    0.014978|
|         637|   -3.509034|   -5.711054|    0.830858|    0.014976|
|         638|   -3.519558|   -5.711608|    0.830817|    0.014974|
|         639|   -3.531754|   -5.712340|    0.830771|    0.014973|
|         640|   -3.544785|   -5.713194|    0.830720|    0.014972|
|         641|   -3.557550|   -5.714105|    0.830663|    0.014971|
|         642|   -3.568901|   -5.715025|    0.830603|    0.014971|
|         643|   -3.577939|   -5.715927|    0.830538|    0.014971|
|         644|   -3.584289|   -5.716769|    0.830470|    0.014971|
|         645|   -3.588218|   -5.717520|    0.830399|    0.014971|
|         646|   -3.590522|   -5.718160|    0.830325|    0.014972|
|         647|   -3.592246|   -5.718667|    0.830247|    0.014973|
|         648|   -3.594379|   -5.719028|    0.830167|    0.014974|
|         649|   -3.597648|   -5.719253|    0.830085|    0.014976|
|         650|   -3.602429|   -5.719336|    0.829999|    0.014979|
|         651|   -3.608755|   -5.719285|    0.829912|    0.014981|
|         652|   -3.616390|   -5.719105|    0.829821|    0.014985|
|         653|   -3.624924|   -5.718769|    0.829728|    0.014988|
|         654|   -3.633892|   -5.718272|    0.829633|    0.014992|
|         655|   -3.642872|   -5.717619|    0.829535|    0.014996|
|         656|   -3.651574|   -5.716817|    0.829434|    0.015001|
|         657|   -3.659878|   -5.715880|    0.829330|    0.015005|
|         658|   -3.667829|   -5.714822|    0.829224|    0.015010|
|         659|   -3.675597|   -5.713657|    0.829114|    0.015016|
|         660|   -3.683411|   -5.712405|    0.829002|    0.015021|
|         661|   -3.691503|   -5.711088|    0.828887|    0.015027|
|         662|   -3.700065|   -5.709719|    0.828769|    0.015033|
|         663|   -3.709224|   -5.708313|    0.828649|    0.015039|
|         664|   -3.719048|   -5.706897|    0.828527|    0.015045|
|         665|   -3.729553|   -5.705493|    0.828402|    0.015052|
|         666|   -3.740722|   -5.704132|    0.828276|    0.015058|
|         667|   -3.752531|   -5.702876|    0.828149|    0.015065|
|         668|   -3.764957|   -5.701742|    0.828021|    0.015071|
|         669|   -3.777989|   -5.700775|    0.827892|    0.015078|
|         670|   -3.791630|   -5.700018|    0.827764|    0.015084|
|         671|   -3.805889|   -5.699452|    0.827637|    0.015091|
|         672|   -3.820780|   -5.699130|    0.827511|    0.015097|
|         673|   -3.836309|   -5.699061|    0.827388|    0.015104|
|         674|   -3.852465|   -5.699230|    0.827268|    0.015110|
|         675|   -3.869222|   -5.699630|    0.827151|    0.015116|
|         676|   -3.886525|   -5.700252|    0.827039|    0.015122|
|         677|   -3.904299|   -5.701081|    0.826932|    0.015128|
|         678|   -3.922437|   -5.702096|    0.826830|    0.015134|
|         679|   -3.940811|   -5.703271|    0.826735|    0.015140|
|         680|   -3.959266|   -5.704563|    0.826646|    0.015146|
|         681|   -3.977620|   -5.705900|    0.826565|    0.015151|
|         682|   -3.995674|   -5.707083|    0.826491|    0.015156|
|         683|   -4.013206|   -5.708545|    0.826426|    0.015161|
|         684|   -4.029987|   -5.710080|    0.826369|    0.015166|
|         685|   -4.045783|   -5.711500|    0.826321|    0.015171|
|         686|   -4.060373|   -5.712637|    0.826282|    0.015175|
|         687|   -4.073559|   -5.713550|    0.826251|    0.015180|
|         688|   -4.085184|   -5.714226|    0.826230|    0.015184|
|         689|   -4.095145|   -5.714651|    0.826218|    0.015187|
|         690|   -4.103397|   -5.714831|    0.826214|    0.015191|
|         691|   -4.109964|   -5.714769|    0.826219|    0.015194|
|         692|   -4.114926|   -5.714488|    0.826233|    0.015197|
|         693|   -4.118416|   -5.714023|    0.826255|    0.015200|
|         694|   -4.120603|   -5.713418|    0.826285|    0.015202|
|         695|   -4.121682|   -5.712724|    0.826322|    0.015204|
|         696|   -4.121854|   -5.711994|    0.826367|    0.015206|
|         697|   -4.121320|   -5.711275|    0.826418|    0.015208|
|         698|   -4.120270|   -5.710650|    0.826476|    0.015210|
|         699|   -4.118878|   -5.710149|    0.826540|    0.015211|
|         700|   -4.117297|   -5.709807|    0.826608|    0.015212|
|         701|   -4.115663|   -5.709663|    0.826686|    0.015025|
+-----------------------------------------------------------------------+
|Fixed CL Mode                           |Value                         |
+-----------------------------------------------------------------------+
|Current CL                              |0.826686                      |
|Target CL                               |0.824                         |
|Previous AOA                            |2.86473                       |
|Changed AoA by                          |-0.0130423                    |
+-----------------------------------------------------------------------+
+----------------------------------------------------------------+
|  Inner_Iter|    rms[Rho]|     rms[nu]|          CL|          CD|
+----------------------------------------------------------------+
|         702|   -2.078010|   -5.685527|    0.826764|    0.015026|
|         703|   -2.461487|   -5.697629|    0.826845|    0.015026|
|         704|   -2.701965|   -5.701725|    0.826930|    0.015027|
|         705|   -2.778513|   -5.704453|    0.827018|    0.015027|
|         706|   -2.831350|   -5.706835|    0.827108|    0.015027|
|         707|   -2.900523|   -5.709091|    0.827199|    0.015027|
|         708|   -2.986471|   -5.711289|    0.827291|    0.015027|
|         709|   -3.077149|   -5.713481|    0.827383|    0.015027|
|         710|   -3.157007|   -5.715615|    0.827475|    0.015027|
|         711|   -3.217761|   -5.717684|    0.827567|    0.015026|
|         712|   -3.260032|   -5.719667|    0.827657|    0.015026|
|         713|   -3.286344|   -5.721562|    0.827745|    0.015025|
|         714|   -3.299540|   -5.723373|    0.827832|    0.015025|
|         715|   -3.305263|   -5.725119|    0.827915|    0.015024|
|         716|   -3.310624|   -5.726776|    0.827995|    0.015023|
|         717|   -3.320705|   -5.728317|    0.828071|    0.015022|
|         718|   -3.336992|   -5.729732|    0.828144|    0.015020|
|         719|   -3.357921|   -5.731023|    0.828212|    0.015019|
|         720|   -3.380439|   -5.732198|    0.828276|    0.015017|
|         721|   -3.401909|   -5.733271|    0.828335|    0.015016|
|         722|   -3.421464|   -5.734280|    0.828389|    0.015014|
|         723|   -3.439950|   -5.735247|    0.828438|    0.015011|
|         724|   -3.458740|   -5.736210|    0.828482|    0.015009|
|         725|   -3.478582|   -5.737168|    0.828520|    0.015006|
|         726|   -3.499206|   -5.738144|    0.828553|    0.015004|
|         727|   -3.519571|   -5.739175|    0.828581|    0.015001|
|         728|   -3.538382|   -5.740283|    0.828604|    0.014998|
|         729|   -3.554528|   -5.741500|    0.828621|    0.014994|
|         730|   -3.567349|   -5.742854|    0.828634|    0.014991|
|         731|   -3.576772|   -5.744367|    0.828641|    0.014987|
|         732|   -3.583337|   -5.746054|    0.828644|    0.014983|
|         733|   -3.588095|   -5.747919|    0.828642|    0.014979|
|         734|   -3.592350|   -5.749914|    0.828635|    0.014975|
|         735|   -3.597355|   -5.752223|    0.828624|    0.014971|
|         736|   -3.604054|   -5.754683|    0.828609|    0.014967|
|         737|   -3.612959|   -5.757297|    0.828590|    0.014963|
|         738|   -3.624107|   -5.760032|    0.828568|    0.014959|
|         739|   -3.637087|   -5.762911|    0.828542|    0.014955|
|         740|   -3.651092|   -5.765884|    0.828514|    0.014951|
|         741|   -3.665030|   -5.768887|    0.828482|    0.014947|
|         742|   -3.677722|   -5.771885|    0.828447|    0.014943|
|         743|   -3.688204|   -5.774868|    0.828410|    0.014939|
|         744|   -3.696019|   -5.777823|    0.828371|    0.014936|
|         745|   -3.701362|   -5.780724|    0.828330|    0.014932|
|         746|   -3.704997|   -5.783565|    0.828286|    0.014929|
|         747|   -3.707978|   -5.786309|    0.828240|    0.014926|
|         748|   -3.711334|   -5.788949|    0.828192|    0.014923|
|         749|   -3.715842|   -5.791469|    0.828142|    0.014921|
|         750|   -3.721920|   -5.793861|    0.828090|    0.014919|
|         751|   -3.729628|   -5.796116|    0.828036|    0.014917|
|         752|   -3.738732|   -5.798247|    0.827980|    0.014915|
|         753|   -3.748804|   -5.800255|    0.827921|    0.014913|
|         754|   -3.759337|   -5.802133|    0.827859|    0.014912|
|         755|   -3.769858|   -5.803877|    0.827796|    0.014911|
|         756|   -3.780028|   -5.805478|    0.827729|    0.014910|
|         757|   -3.789689|   -5.806934|    0.827661|    0.014910|
|         758|   -3.798867|   -5.808244|    0.827589|    0.014910|
|         759|   -3.807735|   -5.809397|    0.827515|    0.014910|
|         760|   -3.816539|   -5.810355|    0.827438|    0.014910|
|         761|   -3.825536|   -5.811374|    0.827359|    0.014911|
|         762|   -3.834939|   -5.812331|    0.827278|    0.014912|
|         763|   -3.844893|   -5.813265|    0.827194|    0.014913|
|         764|   -3.855474|   -5.814175|    0.827109|    0.014914|
|         765|   -3.866697|   -5.815071|    0.827021|    0.014915|
|         766|   -3.878546|   -5.816136|    0.826933|    0.014917|
|         767|   -3.890986|   -5.817145|    0.826843|    0.014919|
|         768|   -3.903989|   -5.818213|    0.826753|    0.014921|
|         769|   -3.917540|   -5.819408|    0.826663|    0.014923|
|         770|   -3.931639|   -5.820765|    0.826574|    0.014926|
|         771|   -3.946297|   -5.822303|    0.826485|    0.014929|
|         772|   -3.961530|   -5.824042|    0.826398|    0.014932|
|         773|   -3.977346|   -5.825950|    0.826313|    0.014935|
|         774|   -3.993740|   -5.828028|    0.826230|    0.014939|
|         775|   -4.010686|   -5.830270|    0.826151|    0.014942|
|         776|   -4.028134|   -5.832663|    0.826076|    0.014946|
|         777|   -4.046009|   -5.835194|    0.826005|    0.014951|
|         778|   -4.064212|   -5.837830|    0.825938|    0.014955|
|         779|   -4.082617|   -5.840534|    0.825877|    0.014960|
|         780|   -4.101076|   -5.843268|    0.825822|    0.014964|
|         781|   -4.119421|   -5.845988|    0.825772|    0.014969|
|         782|   -4.137465|   -5.848647|    0.825729|    0.014975|
|         783|   -4.155007|   -5.851188|    0.825693|    0.014980|
|         784|   -4.171837|   -5.853566|    0.825663|    0.014986|
|         785|   -4.187747|   -5.855736|    0.825640|    0.014991|
|         786|   -4.202540|   -5.857668|    0.825624|    0.014997|
|         787|   -4.216044|   -5.859349|    0.825616|    0.015003|
|         788|   -4.228121|   -5.860754|    0.825614|    0.015009|
|         789|   -4.238682|   -5.861875|    0.825619|    0.015015|
|         790|   -4.247692|   -5.862723|    0.825630|    0.015021|
|         791|   -4.255171|   -5.863324|    0.825648|    0.015027|
|         792|   -4.261190|   -5.863712|    0.825672|    0.015033|
|         793|   -4.265863|   -5.863932|    0.825703|    0.015039|
|         794|   -4.269338|   -5.864039|    0.825739|    0.015045|
|         795|   -4.271781|   -5.864087|    0.825780|    0.015051|
|         796|   -4.273366|   -5.864137|    0.825826|    0.015057|
|         797|   -4.274265|   -5.864243|    0.825877|    0.015063|
|         798|   -4.274641|   -5.864460|    0.825932|    0.015069|
|         799|   -4.274641|   -5.864835|    0.825991|    0.015075|
|         800|   -4.274396|   -5.865401|    0.826053|    0.015081|
|         801|   -4.274022|   -5.866192|    0.826121|    0.014938|
+-----------------------------------------------------------------------+
|Fixed CL Mode                           |Value                         |
+-----------------------------------------------------------------------+
|Current CL                              |0.826121                      |
|Target CL                               |0.824                         |
|Previous AOA                            |2.85169                       |
|Changed AoA by                          |-0.0102667                    |
+-----------------------------------------------------------------------+
+----------------------------------------------------------------+
|  Inner_Iter|    rms[Rho]|     rms[nu]|          CL|          CD|
+----------------------------------------------------------------+
|         802|   -2.181945|   -5.836862|    0.826189|    0.014944|
|         803|   -2.565670|   -5.852833|    0.826259|    0.014949|
|         804|   -2.806972|   -5.858799|    0.826331|    0.014954|
|         805|   -2.884000|   -5.863008|    0.826404|    0.014959|
|         806|   -2.936996|   -5.866718|    0.826478|    0.014964|
|         807|   -3.006286|   -5.870211|    0.826553|    0.014969|
|         808|   -3.092355|   -5.873556|    0.826627|    0.014974|
|         809|   -3.183060|   -5.876782|    0.826702|    0.014978|
|         810|   -3.262682|   -5.879877|    0.826775|    0.014982|
|         811|   -3.322884|   -5.882818|    0.826847|    0.014986|
|         812|   -3.364426|   -5.885585|    0.826918|    0.014990|
|         813|   -3.390038|   -5.888183|    0.826987|    0.014994|
|         814|   -3.402728|   -5.890632|    0.827054|    0.014997|
|         815|   -3.408184|   -5.892946|    0.827118|    0.015000|
|         816|   -3.413458|   -5.895114|    0.827179|    0.015003|
|         817|   -3.423548|   -5.897118|    0.827237|    0.015006|
|         818|   -3.439876|   -5.898945|    0.827292|    0.015008|
|         819|   -3.460837|   -5.900597|    0.827343|    0.015010|
|         820|   -3.483349|   -5.902093|    0.827391|    0.015011|
|         821|   -3.504756|   -5.903457|    0.827435|    0.015013|
|         822|   -3.524181|   -5.904714|    0.827474|    0.015014|
|         823|   -3.542468|   -5.905884|    0.827510|    0.015014|
|         824|   -3.561004|   -5.906994|    0.827542|    0.015014|
|         825|   -3.580557|   -5.908069|    0.827569|    0.015014|
|         826|   -3.600883|   -5.909123|    0.827592|    0.015014|
|         827|   -3.620976|   -5.910189|    0.827611|    0.015013|
|         828|   -3.639566|   -5.911306|    0.827626|    0.015012|
|         829|   -3.655557|   -5.912512|    0.827637|    0.015011|
|         830|   -3.668287|   -5.913839|    0.827644|    0.015009|
|         831|   -3.677660|   -5.915312|    0.827647|    0.015007|
|         832|   -3.684190|   -5.916954|    0.827647|    0.015004|
|         833|   -3.688897|   -5.918773|    0.827643|    0.015002|
|         834|   -3.693069|   -5.920773|    0.827635|    0.014999|
|         835|   -3.697948|   -5.922954|    0.827624|    0.014996|
|         836|   -3.704482|   -5.925295|    0.827610|    0.014992|
|         837|   -3.713188|   -5.927789|    0.827593|    0.014989|
|         838|   -3.724120|   -5.930449|    0.827573|    0.014985|
|         839|   -3.736889|   -5.933207|    0.827551|    0.014981|
|         840|   -3.750714|   -5.936048|    0.827526|    0.014977|
|         841|   -3.764536|   -5.938934|    0.827500|    0.014973|
|         842|   -3.777210|   -5.941827|    0.827471|    0.014969|
|         843|   -3.787792|   -5.944700|    0.827440|    0.014965|
|         844|   -3.795828|   -5.947527|    0.827408|    0.014960|
|         845|   -3.801496|   -5.950297|    0.827374|    0.014956|
|         846|   -3.805528|   -5.953001|    0.827338|    0.014952|
|         847|   -3.808946|   -5.955613|    0.827301|    0.014948|
|         848|   -3.812756|   -5.958113|    0.827262|    0.014944|
|         849|   -3.817723|   -5.960491|    0.827222|    0.014940|
|         850|   -3.824262|   -5.962751|    0.827181|    0.014936|
|         851|   -3.832440|   -5.964873|    0.827138|    0.014932|
|         852|   -3.842028|   -5.966852|    0.827094|    0.014928|
|         853|   -3.852603|   -5.968681|    0.827048|    0.014924|
|         854|   -3.863658|   -5.970358|    0.827000|    0.014921|
|         855|   -3.874716|   -5.971881|    0.826951|    0.014917|
|         856|   -3.885430|   -5.973251|    0.826900|    0.014914|
|         857|   -3.895630|   -5.974482|    0.826847|    0.014911|
|         858|   -3.905334|   -5.975584|    0.826793|    0.014908|
|         859|   -3.914707|   -5.976556|    0.826737|    0.014905|
|         860|   -3.923990|   -5.977411|    0.826680|    0.014903|
|         861|   -3.933437|   -5.978176|    0.826621|    0.014900|
|         862|   -3.943261|   -5.978846|    0.826560|    0.014898|
|         863|   -3.953607|   -5.979430|    0.826498|    0.014896|
|         864|   -3.964547|   -5.979938|    0.826435|    0.014894|
|         865|   -3.976092|   -5.980399|    0.826371|    0.014892|
|         866|   -3.988219|   -5.980844|    0.826307|    0.014891|
|         867|   -4.000885|   -5.981310|    0.826242|    0.014889|
|         868|   -4.014052|   -5.981839|    0.826177|    0.014888|
|         869|   -4.027693|   -5.982530|    0.826113|    0.014888|
|         870|   -4.041796|   -5.983340|    0.826049|    0.014887|
|         871|   -4.056356|   -5.984293|    0.825986|    0.014887|
|         872|   -4.071371|   -5.985411|    0.825925|    0.014886|
|         873|   -4.086832|   -5.986707|    0.825865|    0.014887|
|         874|   -4.102711|   -5.988190|    0.825808|    0.014887|
|         875|   -4.118958|   -5.989861|    0.825754|    0.014888|
|         876|   -4.135495|   -5.991703|    0.825703|    0.014889|
|         877|   -4.152218|   -5.993695|    0.825656|    0.014890|
|         878|   -4.168999|   -5.995809|    0.825612|    0.014891|
|         879|   -4.185686|   -5.998012|    0.825573|    0.014893|
|         880|   -4.202109|   -6.000262|    0.825538|    0.014895|
|         881|   -4.218085|   -6.002513|    0.825508|    0.014898|
|         882|   -4.233424|   -6.004728|    0.825483|    0.014900|
|         883|   -4.247936|   -6.006846|    0.825464|    0.014903|
|         884|   -4.261441|   -6.008819|    0.825449|    0.014906|
|         885|   -4.273780|   -6.010610|    0.825441|    0.014909|
|         886|   -4.284822|   -6.012175|    0.825437|    0.014913|
|         887|   -4.294479|   -6.013493|    0.825439|    0.014917|
|         888|   -4.302706|   -6.014547|    0.825446|    0.014921|
|         889|   -4.309509|   -6.015340|    0.825458|    0.014925|
|         890|   -4.314944|   -6.015888|    0.825476|    0.014929|
|         891|   -4.319104|   -6.016213|    0.825498|    0.014934|
|         892|   -4.322121|   -6.016347|    0.825526|    0.014938|
|         893|   -4.324145|   -6.016340|    0.825557|    0.014943|
|         894|   -4.325339|   -6.016246|    0.825593|    0.014948|
|         895|   -4.325868|   -6.016128|    0.825633|    0.014953|
|         896|   -4.325890|   -6.016046|    0.825676|    0.014958|
|         897|   -4.325551|   -6.016055|    0.825723|    0.014963|
|         898|   -4.324984|   -6.016211|    0.825773|    0.014968|
|         899|   -4.324303|   -6.016561|    0.825826|    0.014973|
|         900|   -4.323606|   -6.017147|    0.825881|    0.014978|
|         901|   -4.322976|   -6.017998|    0.825941|    0.014848|
+-----------------------------------------------------------------------+
|Fixed CL Mode                           |Value                         |
+-----------------------------------------------------------------------+
|Current CL                              |0.825941                      |
|Target CL                               |0.824                         |
|Previous AOA                            |2.84142                       |
[...]
|        5298|   -6.112326|   -7.756076|    0.824213|    0.014684|
|        5299|   -6.120799|   -7.760907|    0.824212|    0.014684|
|        5300|   -6.128809|   -7.765731|    0.824212|    0.014684|
|        5301|   -6.136293|   -7.770565|    0.824212|    0.014684|
|        5302|   -6.143199|   -7.775431|    0.824212|    0.014684|
|        5303|   -6.149489|   -7.780346|    0.824212|    0.014684|
|        5304|   -6.155141|   -7.785327|    0.824211|    0.014684|
|        5305|   -6.160148|   -7.790391|    0.824211|    0.014683|
|        5306|   -6.164521|   -7.795555|    0.824211|    0.014683|
|        5307|   -6.168286|   -7.800832|    0.824211|    0.014683|
|        5308|   -6.171484|   -7.806236|    0.824211|    0.014683|
|        5309|   -6.174166|   -7.811781|    0.824210|    0.014683|
|        5310|   -6.176396|   -7.817477|    0.824210|    0.014683|
|        5311|   -6.178242|   -7.823337|    0.824210|    0.014683|
|        5312|   -6.179777|   -7.829370|    0.824210|    0.014683|
|        5313|   -6.181076|   -7.835584|    0.824210|    0.014683|
|        5314|   -6.182213|   -7.841989|    0.824209|    0.014683|
|        5315|   -6.183259|   -7.848592|    0.824209|    0.014683|
|        5316|   -6.184280|   -7.855398|    0.824209|    0.014683|
|        5317|   -6.185338|   -7.862412|    0.824209|    0.014683|
|        5318|   -6.186486|   -7.869637|    0.824209|    0.014683|
|        5319|   -6.187770|   -7.877078|    0.824208|    0.014683|
|        5320|   -6.189228|   -7.884733|    0.824208|    0.014683|
|        5321|   -6.190890|   -7.892605|    0.824208|    0.014684|
|        5322|   -6.192776|   -7.900691|    0.824208|    0.014684|
|        5323|   -6.194899|   -7.908990|    0.824208|    0.014684|
|        5324|   -6.197262|   -7.917498|    0.824208|    0.014684|
|        5325|   -6.199862|   -7.926210|    0.824207|    0.014684|
|        5326|   -6.202684|   -7.935122|    0.824207|    0.014684|
|        5327|   -6.205709|   -7.944226|    0.824207|    0.014684|
|        5328|   -6.208908|   -7.953518|    0.824207|    0.014684|
|        5329|   -6.212248|   -7.962989|    0.824207|    0.014684|
|        5330|   -6.215687|   -7.972632|    0.824207|    0.014684|
|        5331|   -6.219180|   -7.982439|    0.824207|    0.014684|
|        5332|   -6.222679|   -7.992402|    0.824206|    0.014684|
|        5333|   -6.226131|   -8.002514|    0.824206|    0.014684|
|        5334|   -6.229485|   -8.012766|    0.824206|    0.014684|
|        5335|   -6.232690|   -8.023150|    0.824206|    0.014685|
|        5336|   -6.235698|   -8.033659|    0.824206|    0.014685|
|        5337|   -6.238465|   -8.044283|    0.824205|    0.014685|
|        5338|   -6.240955|   -8.055014|    0.824205|    0.014685|
|        5339|   -6.243140|   -8.065842|    0.824205|    0.014685|
|        5340|   -6.244999|   -8.076758|    0.824205|    0.014685|
|        5341|   -6.246526|   -8.087749|    0.824205|    0.014685|
|        5342|   -6.247721|   -8.098804|    0.824205|    0.014685|
|        5343|   -6.248598|   -8.109907|    0.824204|    0.014685|
|        5344|   -6.249178|   -8.121043|    0.824204|    0.014685|
|        5345|   -6.249495|   -8.132192|    0.824204|    0.014685|
|        5346|   -6.249588|   -8.143334|    0.824204|    0.014685|
|        5347|   -6.249503|   -8.154444|    0.824203|    0.014685|
|        5348|   -6.249290|   -8.165496|    0.824203|    0.014685|
|        5349|   -6.249003|   -8.176463|    0.824203|    0.014685|
|        5350|   -6.248697|   -8.187311|    0.824203|    0.014685|
|        5351|   -6.248426|   -8.198008|    0.824203|    0.014685|
|        5352|   -6.248242|   -8.208519|    0.824202|    0.014686|
|        5353|   -6.248196|   -8.218807|    0.824202|    0.014686|
|        5354|   -6.248334|   -8.228838|    0.824202|    0.014686|
|        5355|   -6.248699|   -8.238574|    0.824202|    0.014686|
|        5356|   -6.249328|   -8.247982|    0.824201|    0.014686|
|        5357|   -6.250255|   -8.257030|    0.824201|    0.014686|
|        5358|   -6.251506|   -8.265691|    0.824201|    0.014686|
|        5359|   -6.253103|   -8.273939|    0.824201|    0.014686|
|        5360|   -6.255064|   -8.281756|    0.824200|    0.014686|
|        5361|   -6.257399|   -8.289130|    0.824200|    0.014686|
|        5362|   -6.260115|   -8.296053|    0.824200|    0.014686|
|        5363|   -6.263211|   -8.302525|    0.824199|    0.014686|
|        5364|   -6.266684|   -8.308552|    0.824199|    0.014686|
|        5365|   -6.270522|   -8.314147|    0.824199|    0.014686|
|        5366|   -6.274710|   -8.319326|    0.824199|    0.014686|
|        5367|   -6.279228|   -8.324112|    0.824198|    0.014686|
|        5368|   -6.284049|   -8.328533|    0.824198|    0.014686|
|        5369|   -6.289144|   -8.332617|    0.824198|    0.014685|
|        5370|   -6.294476|   -8.336397|    0.824197|    0.014685|
|        5371|   -6.300005|   -8.339906|    0.824197|    0.014685|
|        5372|   -6.305687|   -8.343179|    0.824197|    0.014685|
|        5373|   -6.311474|   -8.346250|    0.824196|    0.014685|
|        5374|   -6.317314|   -8.349151|    0.824196|    0.014685|
|        5375|   -6.323154|   -8.351913|    0.824196|    0.014685|
|        5376|   -6.328940|   -8.354568|    0.824195|    0.014685|
|        5377|   -6.334617|   -8.357141|    0.824195|    0.014685|
|        5378|   -6.340130|   -8.359658|    0.824195|    0.014685|
|        5379|   -6.345428|   -8.362140|    0.824195|    0.014685|
|        5380|   -6.350464|   -8.364606|    0.824194|    0.014685|
|        5381|   -6.355192|   -8.367073|    0.824194|    0.014685|
|        5382|   -6.359577|   -8.369552|    0.824194|    0.014685|
|        5383|   -6.363588|   -8.372054|    0.824194|    0.014685|
|        5384|   -6.367202|   -8.374586|    0.824193|    0.014685|
|        5385|   -6.370405|   -8.377150|    0.824193|    0.014684|
|        5386|   -6.373190|   -8.379747|    0.824193|    0.014684|
|        5387|   -6.375558|   -8.382375|    0.824193|    0.014684|
|        5388|   -6.377518|   -8.385026|    0.824192|    0.014684|
|        5389|   -6.379084|   -8.387694|    0.824192|    0.014684|
|        5390|   -6.380277|   -8.390365|    0.824192|    0.014684|
|        5391|   -6.381120|   -8.393025|    0.824192|    0.014684|
|        5392|   -6.381639|   -8.395659|    0.824192|    0.014684|
|        5393|   -6.381865|   -8.398246|    0.824192|    0.014684|
|        5394|   -6.381825|   -8.400767|    0.824191|    0.014684|
|        5395|   -6.381548|   -8.403198|    0.824191|    0.014683|
|        5396|   -6.381060|   -8.405517|    0.824191|    0.014683|
|        5397|   -6.380389|   -8.407699|    0.824191|    0.014683|
|        5398|   -6.379556|   -8.409723|    0.824191|    0.014683|
|        5399|   -6.378582|   -8.411564|    0.824191|    0.014683|
|        5400|   -6.377485|   -8.413202|    0.824191|    0.014683|
|        5401|   -6.376281|   -8.414617|    0.824191|    0.014683|
|        5402|   -6.374983|   -8.415793|    0.824191|    0.014683|
|        5403|   -6.373602|   -8.416717|    0.824191|    0.014683|
|        5404|   -6.372147|   -8.417379|    0.824190|    0.014683|
|        5405|   -6.370625|   -8.417773|    0.824190|    0.014683|
|        5406|   -6.369043|   -8.417899|    0.824190|    0.014682|
|        5407|   -6.367405|   -8.417758|    0.824190|    0.014682|
|        5408|   -6.365718|   -8.417358|    0.824190|    0.014682|
|        5409|   -6.363984|   -8.416709|    0.824190|    0.014682|
|        5410|   -6.362209|   -8.415825|    0.824190|    0.014682|
|        5411|   -6.360396|   -8.414724|    0.824190|    0.014682|
|        5412|   -6.358551|   -8.413424|    0.824190|    0.014682|
|        5413|   -6.356678|   -8.411948|    0.824190|    0.014682|
|        5414|   -6.354783|   -8.410317|    0.824190|    0.014682|
|        5415|   -6.352872|   -8.408556|    0.824190|    0.014682|
|        5416|   -6.350951|   -8.406687|    0.824190|    0.014682|
|        5417|   -6.349029|   -8.404732|    0.824190|    0.014682|
|        5418|   -6.347112|   -8.402714|    0.824189|    0.014682|
|        5419|   -6.345211|   -8.400654|    0.824189|    0.014682|
|        5420|   -6.343335|   -8.398571|    0.824189|    0.014682|
|        5421|   -6.341494|   -8.396481|    0.824189|    0.014681|
|        5422|   -6.339699|   -8.394402|    0.824189|    0.014681|
|        5423|   -6.337962|   -8.392347|    0.824189|    0.014681|
|        5424|   -6.336296|   -8.390328|    0.824189|    0.014681|
|        5425|   -6.334714|   -8.388356|    0.824189|    0.014681|
|        5426|   -6.333230|   -8.386440|    0.824189|    0.014681|
|        5427|   -6.331859|   -8.384587|    0.824189|    0.014681|
|        5428|   -6.330615|   -8.382805|    0.824188|    0.014681|
|        5429|   -6.329515|   -8.381098|    0.824188|    0.014681|
|        5430|   -6.328574|   -8.379472|    0.824188|    0.014681|
|        5431|   -6.327808|   -8.377930|    0.824188|    0.014681|
|        5432|   -6.327233|   -8.376475|    0.824188|    0.014681|
|        5433|   -6.326865|   -8.375111|    0.824188|    0.014681|
|        5434|   -6.326720|   -8.373841|    0.824188|    0.014681|
|        5435|   -6.326812|   -8.372666|    0.824187|    0.014681|
|        5436|   -6.327157|   -8.371591|    0.824187|    0.014681|
|        5437|   -6.327767|   -8.370616|    0.824187|    0.014681|
|        5438|   -6.328654|   -8.369745|    0.824187|    0.014681|
|        5439|   -6.329831|   -8.368980|    0.824187|    0.014682|
|        5440|   -6.331304|   -8.368323|    0.824187|    0.014682|
|        5441|   -6.333083|   -8.367777|    0.824186|    0.014682|
|        5442|   -6.335172|   -8.367343|    0.824186|    0.014682|
|        5443|   -6.337574|   -8.367023|    0.824186|    0.014682|
|        5444|   -6.340289|   -8.366819|    0.824186|    0.014682|
|        5445|   -6.343314|   -8.366732|    0.824186|    0.014682|
|        5446|   -6.346645|   -8.366762|    0.824185|    0.014682|
|        5447|   -6.350272|   -8.366910|    0.824185|    0.014682|
|        5448|   -6.354182|   -8.367175|    0.824185|    0.014682|
|        5449|   -6.358361|   -8.367556|    0.824185|    0.014682|
|        5450|   -6.362787|   -8.368053|    0.824185|    0.014682|
|        5451|   -6.367437|   -8.368661|    0.824184|    0.014682|
|        5452|   -6.372283|   -8.369380|    0.824184|    0.014682|
|        5453|   -6.377293|   -8.370205|    0.824184|    0.014682|
|        5454|   -6.382431|   -8.371132|    0.824184|    0.014683|
|        5455|   -6.387657|   -8.372156|    0.824183|    0.014683|
|        5456|   -6.392929|   -8.373274|    0.824183|    0.014683|
|        5457|   -6.398199|   -8.374478|    0.824183|    0.014683|
|        5458|   -6.403418|   -8.375763|    0.824182|    0.014683|
|        5459|   -6.408536|   -8.377123|    0.824182|    0.014683|
|        5460|   -6.413501|   -8.378551|    0.824182|    0.014683|
|        5461|   -6.418261|   -8.380041|    0.824182|    0.014683|
|        5462|   -6.422766|   -8.381586|    0.824181|    0.014683|
|        5463|   -6.426969|   -8.383180|    0.824181|    0.014683|
|        5464|   -6.430825|   -8.384815|    0.824181|    0.014683|
|        5465|   -6.434297|   -8.386487|    0.824180|    0.014683|
|        5466|   -6.437351|   -8.388188|    0.824180|    0.014683|
|        5467|   -6.439963|   -8.389914|    0.824180|    0.014684|
|        5468|   -6.442117|   -8.391657|    0.824179|    0.014684|
|        5469|   -6.443804|   -8.393415|    0.824179|    0.014684|
|        5470|   -6.445026|   -8.395182|    0.824179|    0.014684|
|        5471|   -6.445793|   -8.396953|    0.824178|    0.014684|
|        5472|   -6.446122|   -8.398725|    0.824178|    0.014684|
|        5473|   -6.446038|   -8.400496|    0.824178|    0.014684|
|        5474|   -6.445575|   -8.402260|    0.824177|    0.014684|
|        5475|   -6.444768|   -8.404017|    0.824177|    0.014684|
|        5476|   -6.443659|   -8.405764|    0.824177|    0.014684|
|        5477|   -6.442292|   -8.407498|    0.824176|    0.014684|
|        5478|   -6.440712|   -8.409217|    0.824176|    0.014684|
|        5479|   -6.438966|   -8.410920|    0.824176|    0.014684|
|        5480|   -6.437099|   -8.412605|    0.824175|    0.014684|
|        5481|   -6.435156|   -8.414271|    0.824175|    0.014684|
|        5482|   -6.433178|   -8.415915|    0.824175|    0.014684|
|        5483|   -6.431205|   -8.417536|    0.824174|    0.014684|
|        5484|   -6.429275|   -8.419132|    0.824174|    0.014684|
|        5485|   -6.427421|   -8.420702|    0.824174|    0.014684|
|        5486|   -6.425674|   -8.422243|    0.824173|    0.014684|
|        5487|   -6.424061|   -8.423754|    0.824173|    0.014684|
|        5488|   -6.422607|   -8.425232|    0.824173|    0.014684|
|        5489|   -6.421331|   -8.426675|    0.824172|    0.014684|
|        5490|   -6.420253|   -8.428081|    0.824172|    0.014684|
|        5491|   -6.419387|   -8.429447|    0.824172|    0.014684|
|        5492|   -6.418745|   -8.430771|    0.824171|    0.014684|
|        5493|   -6.418338|   -8.432050|    0.824171|    0.014684|
|        5494|   -6.418174|   -8.433282|    0.824171|    0.014684|
|        5495|   -6.418257|   -8.434465|    0.824171|    0.014684|
|        5496|   -6.418592|   -8.435595|    0.824170|    0.014684|
|        5497|   -6.419180|   -8.436671|    0.824170|    0.014684|
|        5498|   -6.420022|   -8.437691|    0.824170|    0.014684|
|        5499|   -6.421116|   -8.438651|    0.824170|    0.014670|
+-----------------------------------------------------------------------+
|Fixed CL Mode (Finite Difference)       |Value                         |
+-----------------------------------------------------------------------+
|Delta CL / Delta AoA                    |0.169125                      |
|Delta CD / Delta CL                     |0.0683489                     |
|Delta CMz / Delta CL                    |-0.00400945                   |
+-----------------------------------------------------------------------+
Writing Flow Meta-Data file: flow.meta

----------------------------- Solver Exit -------------------------------

Maximum number of iterations reached (ITER = 5500) before convergence.
+-----------------------------------------------------------------------+
|      Convergence Field     |     Value    |   Criterion  |  Converged |
+-----------------------------------------------------------------------+
|                    rms[Rho]|      -6.42112|         < -12|          No|
+-----------------------------------------------------------------------+
-------------------------------------------------------------------------

--------------------------- Finalizing Solver ---------------------------
Deleted CNumerics container.
Deleted CIntegration container.
Deleted CSolver container.
Deleted CIteration container.
Deleted CInterface container.
Deleted CGeometry container.
Deleted CFreeFormDefBox class.
Deleted CSurfaceMovement class.
Deleted CVolumetricMovement class.
Deleted CConfig container.
Deleted nInst container.
Deleted COutput class.
-------------------------------------------------------------------------

------------------------- Exit Success (SU2_CFD) ------------------------


-------------------------------------------------------------------------
|    ___ _   _ ___                                                      |
|   / __| | | |_  )   Release 8.0.0 "Harrier"                           |
|   \__ \ |_| |/ /                                                      |
|   |___/\___//___|   Suite (Solution Exporting Code)                   |
|                                                                       |
-------------------------------------------------------------------------
| SU2 Project Website: https://su2code.github.io                        |
|                                                                       |
| The SU2 Project is maintained by the SU2 Foundation                   |
| (http://su2foundation.org)                                            |
-------------------------------------------------------------------------
| Copyright 2012-2023, SU2 Contributors                                 |
|                                                                       |
| SU2 is free software; you can redistribute it and/or                  |
| modify it under the terms of the GNU Lesser General Public            |
| License as published by the Free Software Foundation; either          |
| version 2.1 of the License, or (at your option) any later version.    |
|                                                                       |
| SU2 is distributed in the hope that it will be useful,                |
| but WITHOUT ANY WARRANTY; without even the implied warranty of        |
| MERCHANTABILITY or FITNESS FOR A PARTICULAR PURPOSE. See the GNU      |
| Lesser General Public License for more details.                       |
|                                                                       |
| You should have received a copy of the GNU Lesser General Public      |
| License along with SU2. If not, see <http://www.gnu.org/licenses/>.   |
-------------------------------------------------------------------------

----------------- Physical Case Definition ( Zone 0 ) -------------------
Input mesh file name: mesh_RAE2822_turb_deform.su2

-------------------- Output Information ( Zone 0 ) ----------------------
The tabular file format is CSV (.csv).
Flow variables file name: flow.

------------- Config File Boundary Information ( Zone 0 ) ---------------
+-----------------------------------------------------------------------+
|                        Marker Type|                        Marker Name|
+-----------------------------------------------------------------------+
|                          Far-field|                           FARFIELD|
+-----------------------------------------------------------------------+
|                     Heat flux wall|                            AIRFOIL|
+-----------------------------------------------------------------------+
Two dimensional problem.
13937 grid points before partitioning.
22842 volume elements before partitioning.
2 surface markers.
192 boundary elements in index 0 (Marker = AIRFOIL).
40 boundary elements in index 1 (Marker = FARFIELD).
Executing the partitioning functions.
Building the graph adjacency structure.
Calling ParMETIS... graph partitioning complete (831 edge cuts).
Distributing ParMETIS coloring.
Rebalancing vertices.
Rebalancing volume element connectivity.
Rebalancing markers and surface elements.
14875 vertices including ghost points. 
23674 interior elements including halo cells. 
18780 triangles.
4894 quadrilaterals.
Establishing MPI communication patterns.
Identify vertices.
Storing a mapping from global to local point index.

------------------------- Solution Postprocessing -----------------------
Reading and storing the solution from restart_flow.
Volume output fields: COORDINATES, SOLUTION
  Info: Ignoring the following screen output fields:
  RMS_DENSITY, RMS_NU_TILDE, LIFT, DRAG
Screen output fields: INNER_ITER
  Info: Ignoring the following history output groups:
  RMS_RES, AERO_COEFF
History output group(s): ITER
Warning: No (valid) fields chosen for convergence monitoring. Convergence monitoring inactive.
Warning: No (valid) fields chosen for time convergence monitoring. Time convergence monitoring inactive.
|Paraview                           |flow.vtu                           |
|Paraview surface                   |surface_flow.vtu                   |
|CSV file                           |surface_flow.csv                   |

------------------------- Finalize Solver -------------------------
Deleted CGeometry container.
Deleted CSolver class.
Deleted CConfig container.
Deleted COutput class.

Completed in 0.019141 seconds on 6 cores.

------------------------- Exit Success (SU2_SOL) ------------------------

