
-------------------------------------------------------------------------
|    ___ _   _ ___                                                      |
|   / __| | | |_  )   Release 8.0.0 "Harrier"                           |
|   \__ \ |_| |/ /                                                      |
|   |___/\___//___|   Suite (Computational Fluid Dynamics Code)         |
|                                                                       |
-------------------------------------------------------------------------
| SU2 Project Website: https://su2code.github.io                        |
|                                                                       |
| The SU2 Project is maintained by the SU2 Foundation                   |
| (http://su2foundation.org)                                            |
-------------------------------------------------------------------------
| Copyright 2012-2023, SU2 Contributors                                 |
|                                                                       |
| SU2 is free software; you can redistribute it and/or                  |
| modify it under the terms of the GNU Lesser General Public            |
| License as published by the Free Software Foundation; either          |
| version 2.1 of the License, or (at your option) any later version.    |
|                                                                       |
| SU2 is distributed in the hope that it will be useful,                |
| but WITHOUT ANY WARRANTY; without even the implied warranty of        |
| MERCHANTABILITY or FITNESS FOR A PARTICULAR PURPOSE. See the GNU      |
| Lesser General Public License for more details.                       |
|                                                                       |
| You should have received a copy of the GNU Lesser General Public      |
| License along with SU2. If not, see <http://www.gnu.org/licenses/>.   |
-------------------------------------------------------------------------

Parsing config file for zone 0

----------------- Physical Case Definition ( Zone 0 ) -------------------
Compressible RANS equations.
Turbulence model: Spalart-Allmaras-noft2
Hybrid RANS/LES: No Hybrid RANS/LES
Mach number: 0.734.
Angle of attack (AoA): 2.31 deg, and angle of sideslip (AoS): 0 deg.
Reynolds number: 6.5e+06. Reference length 1.
Fixed CL mode, target value: 0.824.
Reading and writing binary SU2 native restart files.
Read flow solution from: solution_flow.dat.
Dimensional simulation.
The reference area is 1 m^2.
The semi-span will be computed using the max y(3D) value.
The reference length is 1 m.
Reference origin for moment evaluation is (0.25, 0, 0).
Surface(s) where the force coefficients are evaluated: AIRFOIL.

Surface(s) plotted in the output file: AIRFOIL.
Surface(s) affected by the design variables: AIRFOIL.
Input mesh file name: mesh_RAE2822_turb_deform.su2

--------------- Space Numerical Integration ( Zone 0 ) ------------------
Jameson-Schmidt-Turkel scheme (2nd order in space) for the flow inviscid terms.
JST viscous coefficients (2nd & 4th): 0.5, 0.02.
The method includes a grid stretching correction (p = 0.3).
Scalar upwind solver for the turbulence model.
First order integration in space.
Average of gradients with correction (viscous flow terms).
Average of gradients with correction (viscous turbulence terms).
Gradient for viscous and source terms: inverse-distance weighted Least-Squares.

--------------- Time Numerical Integration  ( Zone 0 ) ------------------
Local time stepping (steady state simulation).
Euler implicit method for the flow equations.
FGMRES is used for solving the linear system.
Using a ILU(0) preconditioning.
Convergence criteria of the linear solver: 1e-06.
Max number of linear iterations: 10.
No CFL adaptation.
Courant-Friedrichs-Lewy number:       10
Euler implicit time integration for the turbulence model.

------------------ Convergence Criteria  ( Zone 0 ) ---------------------
Maximum number of solver subiterations: 5500.
Begin convergence monitoring at iteration 10.
Residual minimum value: 1e-12.
Cauchy series min. value: 1e-06.
Number of Cauchy elements: 100.
Begin windowed time average at iteration 0.

-------------------- Output Information ( Zone 0 ) ----------------------
File writing frequency: 
+------------------------------------+
|                     File| Frequency|
+------------------------------------+
|                  RESTART|     10000|
|                 PARAVIEW|     10000|
|         SURFACE_PARAVIEW|     10000|
|              SURFACE_CSV|     10000|
+------------------------------------+
Writing the convergence history file every 1 inner iterations.
Writing the screen convergence history every 1 inner iterations.
The tabular file format is CSV (.csv).
Convergence history file name: history_direct.
Forces breakdown file name: forces_breakdown.dat.
Surface file name: surface_flow.
Volume file name: flow.
Restart file name: restart_flow.dat.

------------- Config File Boundary Information ( Zone 0 ) ---------------
+-----------------------------------------------------------------------+
|                        Marker Type|                        Marker Name|
+-----------------------------------------------------------------------+
|                          Far-field|                           FARFIELD|
+-----------------------------------------------------------------------+
|                     Heat flux wall|                            AIRFOIL|
+-----------------------------------------------------------------------+

-------------------- Output Preprocessing ( Zone 0 ) --------------------

WARNING: SURFACE_PRESSURE_DROP can only be computed for at least 2 surfaces (outlet, inlet, ...)

Screen output fields: INNER_ITER, RMS_DENSITY, RMS_NU_TILDE, LIFT, DRAG
History output group(s): ITER, RMS_RES, AERO_COEFF
Convergence field(s): RMS_DENSITY
Warning: No (valid) fields chosen for time convergence monitoring. Time convergence monitoring inactive.
Volume output fields: COORDINATES, SOLUTION, PRIMITIVE

------------------- Geometry Preprocessing ( Zone 0 ) -------------------
Two dimensional problem.
13937 grid points before partitioning.
22842 volume elements before partitioning.
2 surface markers.
192 boundary elements in index 0 (Marker = AIRFOIL).
40 boundary elements in index 1 (Marker = FARFIELD).
Executing the partitioning functions.
Building the graph adjacency structure.
Calling ParMETIS... graph partitioning complete (831 edge cuts).
Distributing ParMETIS coloring.
Rebalancing vertices.
Rebalancing volume element connectivity.
Rebalancing markers and surface elements.
14875 vertices including ghost points. 
23674 interior elements including halo cells. 
18780 triangles.
4894 quadrilaterals.
Establishing MPI communication patterns.
Setting point connectivity.
Renumbering points (Reverse Cuthill McKee Ordering).
Recomputing point connectivity.
Setting element connectivity.
Checking the numerical grid orientation.
All volume elements are correctly orientend.
All surface elements are correctly orientend.
Identifying edges and vertices.
Setting the control volume structure.
Area of the computational grid: 32209.9.
Searching for the closest normal neighbors to the surfaces.
Storing a mapping from global to local point index.
Compute the surface curvature.
Max K: 205.44. Mean K: 8.32161. Standard deviation K: 26.9935.
Checking for periodicity.
Computing mesh quality statistics for the dual control volumes.
+--------------------------------------------------------------+
|           Mesh Quality Metric|        Minimum|        Maximum|
+--------------------------------------------------------------+
|    Orthogonality Angle (deg.)|        74.4831|        89.9999|
|     CV Face Area Aspect Ratio|        1.00102|           3359|
|           CV Sub-Volume Ratio|        1.00067|        1219.44|
+--------------------------------------------------------------+
Finding max control volume width.
Communicating number of neighbors.
Wetted area = 2.0214 m.
Area projection in the x-plane = 0.127888 m, y-plane = 0.995873 m.
Max. coordinate in the x-direction = 1 m, y-direction = 0.0615701 m.
Min. coordinate in the x-direction = 0 m, y-direction = -0.0625545 m.
Computing wall distances.

-------------------- Solver Preprocessing ( Zone 0 ) --------------------
WARNING: AoA in the solution file (2.76628 deg.) +
         AoA offset in mesh file (0 deg.) = 2.76628 deg.
WARNING: SU2 will use the dCD/dCL provided in the direct solution file: 0.0196727.
WARNING: SU2 will use the dCMz/dCL provided in the direct solution file: 0.00856688.
Viscous flow: Computing pressure using the ideal gas law
based on the free-stream temperature and a density computed
from the Reynolds number.
Force coefficients computed using free-stream values.

-- Models:
+------------------------------------------------------------------------------+
|          Viscosity Model|        Conductivity Model|              Fluid Model|
+------------------------------------------------------------------------------+
|               SUTHERLAND|          CONSTANT_PRANDTL|             STANDARD_AIR|
+------------------------------------------------------------------------------+
-- Fluid properties:
+------------------------------------------------------------------------------+
|                  Name|    Dim. value|    Ref. value|      Unit|Non-dim. value|
+------------------------------------------------------------------------------+
|        Ref. Viscosity|     1.716e-05|             1|   N.s/m^2|     1.716e-05|
|      Sutherland Temp.|        273.15|             1|         K|        273.15|
|     Sutherland Const.|         110.4|             1|         K|         110.4|
+------------------------------------------------------------------------------+
|        Prandtl (Lam.)|             -|             -|         -|          0.71|
|       Prandtl (Turb.)|             -|             -|         -|           0.9|
+------------------------------------------------------------------------------+
|          Gas Constant|       287.058|             1|  N.m/kg.K|       287.058|
|      Spec. Heat Ratio|             -|             -|         -|           1.4|
+------------------------------------------------------------------------------+
-- Initial and free-stream conditions:
+------------------------------------------------------------------------------+
|                  Name|    Dim. value|    Ref. value|      Unit|Non-dim. value|
+------------------------------------------------------------------------------+
|       Static Pressure|         38515|             1|        Pa|         38515|
|               Density|      0.465631|             1|    kg/m^3|      0.465631|
|           Temperature|        288.15|             1|         K|        288.15|
|          Total Energy|        237984|             1|   m^2/s^2|        237984|
|            Velocity-X|       249.487|             1|       m/s|       249.487|
|            Velocity-Y|       12.0548|             1|       m/s|       12.0548|
|    Velocity Magnitude|       249.778|             1|       m/s|       249.778|
+------------------------------------------------------------------------------+
|             Viscosity|    1.7893e-05|             1|   N.s/m^2|    1.7893e-05|
|          Conductivity|             -|             1|   W/m^2.K|             -|
|     Turb. Kin. Energy|       233.959|             1|   m^2/s^2|       233.959|
|     Spec. Dissipation|        608834|             1|       1/s|        608834|
+------------------------------------------------------------------------------+
|           Mach Number|             -|             -|         -|         0.734|
|       Reynolds Number|             -|             -|         -|       6.5e+06|
+------------------------------------------------------------------------------+
Initialize Jacobian structure (Navier-Stokes). MG level: 0.
Initialize Jacobian structure (SA model).

------------------- Numerics Preprocessing ( Zone 0 ) -------------------

----------------- Integration Preprocessing ( Zone 0 ) ------------------

------------------- Iteration Preprocessing ( Zone 0 ) ------------------
Euler/Navier-Stokes/RANS fluid iteration.

------------------------------ Begin Solver -----------------------------

Simulation Run using the Single-zone Driver
WARNING: SU2 was not compiled for an AVX-capable architecture. Performance could be better,
         see https://su2code.github.io/docs_v7/Build-SU2-Linux-MacOS/#compiler-optimizations
+----------------------------------------------------------------+
|  Inner_Iter|    rms[Rho]|     rms[nu]|          CL|          CD|
+----------------------------------------------------------------+
|           0|   -5.659957|   -7.031590|    0.824016|    0.012000|
|           1|   -5.718553|   -7.138594|    0.824024|    0.012004|
|           2|   -5.781213|   -7.269426|    0.824026|    0.012006|
|           3|   -5.826419|   -7.424610|    0.824025|    0.012007|
|           4|   -5.853781|   -7.594906|    0.824022|    0.012007|
|           5|   -5.867963|   -7.726414|    0.824020|    0.012007|
|           6|   -5.873287|   -7.746563|    0.824019|    0.012007|
|           7|   -5.873379|   -7.705536|    0.824019|    0.012007|
|           8|   -5.870891|   -7.668160|    0.824020|    0.012007|
|           9|   -5.867100|   -7.643116|    0.824021|    0.012008|
|          10|   -5.862099|   -7.620516|    0.824022|    0.012009|
|          11|   -5.855514|   -7.593233|    0.824024|    0.012009|
|          12|   -5.847160|   -7.562968|    0.824026|    0.012010|
|          13|   -5.837274|   -7.536168|    0.824028|    0.012011|
|          14|   -5.826411|   -7.518253|    0.824030|    0.012012|
|          15|   -5.815229|   -7.511649|    0.824031|    0.012013|
|          16|   -5.804341|   -7.516253|    0.824033|    0.012014|
|          17|   -5.794277|   -7.530150|    0.824033|    0.012015|
|          18|   -5.785502|   -7.549919|    0.824033|    0.012016|
|          19|   -5.778420|   -7.570804|    0.824033|    0.012017|
|          20|   -5.773351|   -7.587451|    0.824032|    0.012018|
|          21|   -5.770473|   -7.595727|    0.824030|    0.012018|
|          22|   -5.769784|   -7.594804|    0.824028|    0.012019|
|          23|   -5.771069|   -7.587454|    0.824025|    0.012019|
|          24|   -5.773929|   -7.578171|    0.824021|    0.012019|
|          25|   -5.777834|   -7.570981|    0.824018|    0.012019|
|          26|   -5.782206|   -7.568382|    0.824014|    0.012019|
|          27|   -5.786508|   -7.571257|    0.824010|    0.012019|
|          28|   -5.790312|   -7.579148|    0.824005|    0.012019|
|          29|   -5.793319|   -7.590580|    0.824001|    0.012019|
|          30|   -5.795356|   -7.603408|    0.823997|    0.012018|
|          31|   -5.796337|   -7.615306|    0.823993|    0.012018|
|          32|   -5.796242|   -7.624398|    0.823989|    0.012017|
|          33|   -5.795098|   -7.629828|    0.823985|    0.012016|
|          34|   -5.792989|   -7.631961|    0.823982|    0.012015|
|          35|   -5.790057|   -7.632085|    0.823978|    0.012014|
|          36|   -5.786507|   -7.631849|    0.823975|    0.012013|
|          37|   -5.782582|   -7.632760|    0.823972|    0.012012|
|          38|   -5.778530|   -7.635912|    0.823970|    0.012011|
|          39|   -5.774569|   -7.641924|    0.823967|    0.012010|
|          40|   -5.770858|   -7.650969|    0.823965|    0.012008|
|          41|   -5.767482|   -7.662827|    0.823963|    0.012007|
|          42|   -5.764450|   -7.676925|    0.823961|    0.012006|
|          43|   -5.761713|   -7.692352|    0.823960|    0.012005|
|          44|   -5.759175|   -7.707873|    0.823958|    0.012004|
|          45|   -5.756717|   -7.722011|    0.823957|    0.012002|
|          46|   -5.754215|   -7.733215|    0.823956|    0.012001|
|          47|   -5.751552|   -7.740180|    0.823955|    0.012000|
|          48|   -5.748629|   -7.742192|    0.823954|    0.011999|
|          49|   -5.745368|   -7.739362|    0.823954|    0.011998|
|          50|   -5.741715|   -7.732600|    0.823954|    0.011997|
|          51|   -5.737638|   -7.723333|    0.823954|    0.011997|
|          52|   -5.733133|   -7.713136|    0.823954|    0.011996|
|          53|   -5.728214|   -7.703427|    0.823955|    0.011995|
|          54|   -5.722916|   -7.695309|    0.823956|    0.011994|
|          55|   -5.717289|   -7.689522|    0.823957|    0.011994|
|          56|   -5.711393|   -7.686468|    0.823958|    0.011993|
|          57|   -5.705296|   -7.686266|    0.823960|    0.011992|
|          58|   -5.699061|   -7.688805|    0.823962|    0.011992|
|          59|   -5.692751|   -7.693800|    0.823964|    0.011991|
|          60|   -5.686415|   -7.700836|    0.823966|    0.011991|
|          61|   -5.680095|   -7.709428|    0.823969|    0.011990|
|          62|   -5.673823|   -7.719061|    0.823971|    0.011990|
|          63|   -5.667621|   -7.729236|    0.823974|    0.011990|
|          64|   -5.661504|   -7.739508|    0.823977|    0.011989|
|          65|   -5.655487|   -7.749509|    0.823980|    0.011989|
|          66|   -5.649582|   -7.758954|    0.823982|    0.011989|
|          67|   -5.643807|   -7.767635|    0.823985|    0.011988|
|          68|   -5.638179|   -7.775406|    0.823987|    0.011988|
|          69|   -5.632721|   -7.782169|    0.823990|    0.011988|
|          70|   -5.627453|   -7.787866|    0.823992|    0.011988|
|          71|   -5.622400|   -7.792478|    0.823994|    0.011987|
|          72|   -5.617578|   -7.796028|    0.823996|    0.011987|
|          73|   -5.613003|   -7.798578|    0.823998|    0.011987|
|          74|   -5.608679|   -7.800223|    0.823999|    0.011987|
|          75|   -5.604607|   -7.801073|    0.824001|    0.011987|
|          76|   -5.600775|   -7.801236|    0.824002|    0.011987|
|          77|   -5.597166|   -7.800792|    0.824003|    0.011987|
|          78|   -5.593758|   -7.799791|    0.824004|    0.011987|
|          79|   -5.590524|   -7.798254|    0.824004|    0.011987|
|          80|   -5.587439|   -7.796186|    0.824005|    0.011987|
|          81|   -5.584480|   -7.793598|    0.824005|    0.011987|
|          82|   -5.581628|   -7.790533|    0.824006|    0.011987|
|          83|   -5.578877|   -7.787077|    0.824006|    0.011987|
|          84|   -5.576226|   -7.783366|    0.824006|    0.011987|
|          85|   -5.573687|   -7.779584|    0.824006|    0.011987|
|          86|   -5.571284|   -7.775941|    0.824006|    0.011987|
|          87|   -5.569046|   -7.772654|    0.824007|    0.011988|
|          88|   -5.567011|   -7.769927|    0.824007|    0.011988|
|          89|   -5.565222|   -7.767925|    0.824007|    0.011988|
|          90|   -5.563720|   -7.766772|    0.824007|    0.011988|
|          91|   -5.562547|   -7.766538|    0.824007|    0.011988|
|          92|   -5.561739|   -7.767242|    0.824008|    0.011989|
|          93|   -5.561327|   -7.768855|    0.824008|    0.011989|
|          94|   -5.561333|   -7.771312|    0.824008|    0.011989|
|          95|   -5.561770|   -7.774515|    0.824009|    0.011989|
|          96|   -5.562640|   -7.778349|    0.824009|    0.011990|
|          97|   -5.563934|   -7.782690|    0.824010|    0.011990|
|          98|   -5.565631|   -7.787413|    0.824010|    0.011990|
|          99|   -5.567701|   -7.792405|    0.824011|    0.011991|
|         100|   -5.570101|   -7.797561|    0.824011|    0.011991|
|         101|   -5.572775|   -7.802800|    0.824012|    0.011991|
+-----------------------------------------------------------------------+
|Fixed CL Mode                           |Value                         |
+-----------------------------------------------------------------------+
|Current CL                              |0.824012                      |
|Target CL                               |0.824                         |
|Previous AOA                            |2.76628                       |
|Changed AoA by                          |-5.57788e-05                  |
+-----------------------------------------------------------------------+
+----------------------------------------------------------------+
|  Inner_Iter|    rms[Rho]|     rms[nu]|          CL|          CD|
+----------------------------------------------------------------+
|         102|   -4.445181|   -7.800599|    0.824012|    0.011991|
|         103|   -4.818605|   -7.809365|    0.824013|    0.011992|
|         104|   -5.038606|   -7.815622|    0.824014|    0.011992|
|         105|   -5.109046|   -7.821350|    0.824014|    0.011993|
|         106|   -5.160874|   -7.826838|    0.824015|    0.011993|
|         107|   -5.226168|   -7.832160|    0.824015|    0.011994|
|         108|   -5.302653|   -7.837360|    0.824016|    0.011995|
|         109|   -5.377209|   -7.842472|    0.824016|    0.011995|
|         110|   -5.435768|   -7.847525|    0.824017|    0.011996|
|         111|   -5.473350|   -7.852541|    0.824017|    0.011996|
|         112|   -5.493366|   -7.857535|    0.824017|    0.011997|
|         113|   -5.500713|   -7.862529|    0.824017|    0.011997|
|         114|   -5.499787|   -7.867545|    0.824018|    0.011997|
|         115|   -5.495183|   -7.872603|    0.824018|    0.011998|
|         116|   -5.490970|   -7.877711|    0.824018|    0.011998|
|         117|   -5.489451|   -7.882872|    0.824017|    0.011999|
|         118|   -5.490858|   -7.888084|    0.824017|    0.011999|
|         119|   -5.493996|   -7.893347|    0.824017|    0.011999|
|         120|   -5.497272|   -7.898662|    0.824017|    0.012000|
|         121|   -5.499593|   -7.904029|    0.824016|    0.012000|
|         122|   -5.500733|   -7.909453|    0.824016|    0.012000|
|         123|   -5.501104|   -7.914943|    0.824015|    0.012000|
|         124|   -5.501297|   -7.920514|    0.824015|    0.012000|
|         125|   -5.501750|   -7.926188|    0.824015|    0.012001|
|         126|   -5.502670|   -7.931993|    0.824014|    0.012001|
|         127|   -5.504102|   -7.937959|    0.824014|    0.012001|
|         128|   -5.506014|   -7.944116|    0.824013|    0.012001|
|         129|   -5.508336|   -7.950485|    0.824013|    0.012001|
|         130|   -5.510963|   -7.957077|    0.824012|    0.012001|
|         131|   -5.513770|   -7.963888|    0.824012|    0.012001|
|         132|   -5.516635|   -7.970898|    0.824012|    0.012001|
|         133|   -5.519467|   -7.978067|    0.824011|    0.012001|
|         134|   -5.522214|   -7.985335|    0.824011|    0.012001|
|         135|   -5.524856|   -7.992624|    0.824011|    0.012001|
|         136|   -5.527383|   -7.999843|    0.824011|    0.012001|
|         137|   -5.529769|   -8.006885|    0.824010|    0.012001|
|         138|   -5.531962|   -8.013642|    0.824010|    0.012001|
|         139|   -5.533879|   -8.020004|    0.824010|    0.012001|
|         140|   -5.535416|   -8.025873|    0.824010|    0.012001|
|         141|   -5.536465|   -8.031166|    0.824010|    0.012001|
|         142|   -5.536935|   -8.035825|    0.824010|    0.012001|
|         143|   -5.536779|   -8.039823|    0.824009|    0.012001|
|         144|   -5.536000|   -8.043160|    0.824009|    0.012001|
|         145|   -5.534661|   -8.045870|    0.824009|    0.012001|
|         146|   -5.532864|   -8.048012|    0.824009|    0.012001|
|         147|   -5.530729|   -8.049666|    0.824009|    0.012001|
|         148|   -5.528373|   -8.050923|    0.824008|    0.012001|
|         149|   -5.525887|   -8.051881|    0.824008|    0.012001|
|         150|   -5.523330|   -8.052631|    0.824008|    0.012001|
|         151|   -5.520730|   -8.053255|    0.824007|    0.012001|
|         152|   -5.518093|   -8.053824|    0.824007|    0.012001|
|         153|   -5.515411|   -8.054385|    0.824006|    0.012001|
|         154|   -5.512676|   -8.054965|    0.824006|    0.012001|
|         155|   -5.509886|   -8.055569|    0.824005|    0.012001|
|         156|   -5.507051|   -8.056180|    0.824005|    0.012000|
|         157|   -5.504190|   -8.056765|    0.824004|    0.012000|
|         158|   -5.501333|   -8.057277|    0.824003|    0.012000|
|         159|   -5.498511|   -8.057659|    0.824003|    0.012000|
|         160|   -5.495759|   -8.057853|    0.824002|    0.012000|
|         161|   -5.493107|   -8.057799|    0.824001|    0.011999|
|         162|   -5.490581|   -8.057447|    0.824000|    0.011999|
|         163|   -5.488202|   -8.056753|    0.824000|    0.011999|
|         164|   -5.485986|   -8.055700|    0.823999|    0.011999|
|         165|   -5.483943|   -8.054286|    0.823998|    0.011999|
|         166|   -5.482082|   -8.052530|    0.823997|    0.011998|
|         167|   -5.480406|   -8.050471|    0.823997|    0.011998|
|         168|   -5.478914|   -8.048157|    0.823996|    0.011998|
|         169|   -5.477606|   -8.045652|    0.823995|    0.011998|
|         170|   -5.476474|   -8.043032|    0.823995|    0.011997|
|         171|   -5.475512|   -8.040379|    0.823994|    0.011997|
|         172|   -5.474709|   -8.037773|    0.823994|    0.011997|
|         173|   -5.474053|   -8.035291|    0.823993|    0.011997|
|         174|   -5.473532|   -8.033002|    0.823993|    0.011996|
|         175|   -5.473134|   -8.030964|    0.823993|    0.011996|
|         176|   -5.472848|   -8.029226|    0.823993|    0.011996|
|         177|   -5.472665|   -8.027823|    0.823992|    0.011996|
|         178|   -5.472579|   -8.026778|    0.823992|    0.011996|
|         179|   -5.472588|   -8.026102|    0.823992|    0.011995|
|         180|   -5.472692|   -8.025796|    0.823992|    0.011995|
|         181|   -5.472898|   -8.025849|    0.823992|    0.011995|
|         182|   -5.473213|   -8.026243|    0.823992|    0.011995|
|         183|   -5.473648|   -8.026951|    0.823993|    0.011995|
|         184|   -5.474217|   -8.027940|    0.823993|    0.011995|
|         185|   -5.474932|   -8.029174|    0.823993|    0.011994|
|         186|   -5.475808|   -8.030613|    0.823993|    0.011994|
|         187|   -5.476857|   -8.032217|    0.823994|    0.011994|
|         188|   -5.478088|   -8.033947|    0.823994|    0.011994|
|         189|   -5.479505|   -8.035764|    0.823995|    0.011994|
|         190|   -5.481110|   -8.037635|    0.823995|    0.011994|
|         191|   -5.482896|   -8.039531|    0.823996|    0.011994|
|         192|   -5.484850|   -8.041426|    0.823996|    0.011994|
|         193|   -5.486953|   -8.043303|    0.823997|    0.011993|
|         194|   -5.489176|   -8.045149|    0.823997|    0.011993|
|         195|   -5.491485|   -8.046957|    0.823998|    0.011993|
|         196|   -5.493838|   -8.048726|    0.823998|    0.011993|
|         197|   -5.496189|   -8.050462|    0.823999|    0.011993|
|         198|   -5.498489|   -8.052173|    0.823999|    0.011993|
|         199|   -5.500684|   -8.053872|    0.824000|    0.011993|
|         200|   -5.502726|   -8.055575|    0.824001|    0.011993|
|         201|   -5.504568|   -8.057298|    0.824001|    0.011993|
+-----------------------------------------------------------------------+
|Fixed CL Mode                           |Value                         |
+-----------------------------------------------------------------------+
|Current CL                              |0.824001                      |
|Target CL                               |0.824                         |
|Previous AOA                            |2.76622                       |
|Changed AoA by                          |-2.55168e-06                  |
+-----------------------------------------------------------------------+
+----------------------------------------------------------------+
|  Inner_Iter|    rms[Rho]|     rms[nu]|          CL|          CD|
+----------------------------------------------------------------+
|         202|   -5.454553|   -8.058958|    0.824002|    0.011993|
|         203|   -5.497068|   -8.060777|    0.824002|    0.011993|
|         204|   -5.503202|   -8.062661|    0.824003|    0.011993|
|         205|   -5.504460|   -8.064644|    0.824003|    0.011993|
|         206|   -5.505828|   -8.066741|    0.824004|    0.011993|
|         207|   -5.507318|   -8.068958|    0.824004|    0.011992|
|         208|   -5.508517|   -8.071300|    0.824005|    0.011992|
|         209|   -5.509235|   -8.073766|    0.824005|    0.011992|
|         210|   -5.509521|   -8.076355|    0.824006|    0.011993|
|         211|   -5.509547|   -8.079062|    0.824006|    0.011993|
|         212|   -5.509493|   -8.081881|    0.824007|    0.011993|
|         213|   -5.509507|   -8.084803|    0.824007|    0.011993|
|         214|   -5.509712|   -8.087820|    0.824008|    0.011993|
|         215|   -5.510215|   -8.090920|    0.824008|    0.011993|
|         216|   -5.511114|   -8.094092|    0.824008|    0.011993|
|         217|   -5.512496|   -8.097326|    0.824009|    0.011993|
|         218|   -5.514437|   -8.100612|    0.824009|    0.011993|
|         219|   -5.517000|   -8.103939|    0.824009|    0.011993|
|         220|   -5.520239|   -8.107303|    0.824010|    0.011993|
|         221|   -5.524198|   -8.110700|    0.824010|    0.011993|
|         222|   -5.528914|   -8.114129|    0.824010|    0.011994|
|         223|   -5.534415|   -8.117596|    0.824010|    0.011994|
|         224|   -5.540720|   -8.121108|    0.824011|    0.011994|
|         225|   -5.547835|   -8.124679|    0.824011|    0.011994|
|         226|   -5.555758|   -8.128326|    0.824011|    0.011994|
|         227|   -5.564473|   -8.132068|    0.824011|    0.011994|
|         228|   -5.573955|   -8.135929|    0.824011|    0.011994|
|         229|   -5.584164|   -8.139933|    0.824011|    0.011995|
|         230|   -5.595048|   -8.144110|    0.824011|    0.011995|
|         231|   -5.606539|   -8.148489|    0.824011|    0.011995|
|         232|   -5.618552|   -8.153100|    0.824011|    0.011995|
|         233|   -5.630987|   -8.157973|    0.824011|    0.011995|
|         234|   -5.643724|   -8.163138|    0.824011|    0.011996|
|         235|   -5.656626|   -8.168622|    0.824011|    0.011996|
|         236|   -5.669540|   -8.174447|    0.824011|    0.011996|
|         237|   -5.682300|   -8.180635|    0.824011|    0.011996|
|         238|   -5.694727|   -8.187202|    0.824011|    0.011996|
|         239|   -5.706643|   -8.194161|    0.824011|    0.011996|
|         240|   -5.717870|   -8.201518|    0.824011|    0.011997|
|         241|   -5.728244|   -8.209275|    0.824010|    0.011997|
|         242|   -5.737625|   -8.217429|    0.824010|    0.011997|
|         243|   -5.745901|   -8.225972|    0.824010|    0.011997|
|         244|   -5.753000|   -8.234888|    0.824010|    0.011997|
|         245|   -5.758890|   -8.244158|    0.824010|    0.011997|
|         246|   -5.763586|   -8.253755|    0.824010|    0.011998|
|         247|   -5.767141|   -8.263649|    0.824010|    0.011998|
|         248|   -5.769644|   -8.273804|    0.824010|    0.011998|
|         249|   -5.771212|   -8.284183|    0.824010|    0.011998|
|         250|   -5.771980|   -8.294741|    0.824010|    0.011998|
|         251|   -5.772095|   -8.305437|    0.824010|    0.011998|
|         252|   -5.771703|   -8.316225|    0.824009|    0.011998|
|         253|   -5.770949|   -8.327058|    0.824009|    0.011999|
|         254|   -5.769968|   -8.337894|    0.824009|    0.011999|
|         255|   -5.768882|   -8.348692|    0.824009|    0.011999|
|         256|   -5.767801|   -8.359412|    0.824009|    0.011999|
|         257|   -5.766819|   -8.370023|    0.824009|    0.011999|
|         258|   -5.766019|   -8.380498|    0.824009|    0.011999|
|         259|   -5.765468|   -8.390812|    0.824009|    0.011999|
|         260|   -5.765223|   -8.400946|    0.824008|    0.011999|
|         261|   -5.765329|   -8.410885|    0.824008|    0.011999|
|         262|   -5.765822|   -8.420613|    0.824008|    0.011999|
|         263|   -5.766730|   -8.430116|    0.824008|    0.011999|
|         264|   -5.768075|   -8.439376|    0.824008|    0.011999|
|         265|   -5.769871|   -8.448368|    0.824007|    0.011999|
|         266|   -5.772129|   -8.457061|    0.824007|    0.011999|
|         267|   -5.774854|   -8.465414|    0.824007|    0.011999|
|         268|   -5.778048|   -8.473373|    0.824007|    0.011999|
|         269|   -5.781711|   -8.480873|    0.824006|    0.011999|
|         270|   -5.785838|   -8.487839|    0.824006|    0.011999|
|         271|   -5.790421|   -8.494184|    0.824006|    0.011999|
|         272|   -5.795451|   -8.499819|    0.824005|    0.011999|
|         273|   -5.800916|   -8.504651|    0.824005|    0.011999|
|         274|   -5.806800|   -8.508595|    0.824005|    0.011999|
|         275|   -5.813086|   -8.511579|    0.824005|    0.011999|
|         276|   -5.819754|   -8.513550|    0.824004|    0.011999|
|         277|   -5.826779|   -8.514483|    0.824004|    0.011999|
|         278|   -5.834135|   -8.514381|    0.824004|    0.011999|
|         279|   -5.841793|   -8.513286|    0.824003|    0.011999|
|         280|   -5.849718|   -8.511264|    0.824003|    0.011998|
|         281|   -5.857875|   -8.508412|    0.824003|    0.011998|
|         282|   -5.866223|   -8.504853|    0.824002|    0.011998|
|         283|   -5.874718|   -8.500728|    0.824002|    0.011998|
|         284|   -5.883314|   -8.496187|    0.824002|    0.011998|
|         285|   -5.891960|   -8.491385|    0.824002|    0.011998|
|         286|   -5.900604|   -8.486474|    0.824001|    0.011998|
|         287|   -5.909193|   -8.481602|    0.824001|    0.011998|
|         288|   -5.917672|   -8.476903|    0.824001|    0.011997|
|         289|   -5.925987|   -8.472500|    0.824001|    0.011997|
|         290|   -5.934086|   -8.468501|    0.824001|    0.011997|
|         291|   -5.941918|   -8.465000|    0.824001|    0.011997|
|         292|   -5.949439|   -8.462074|    0.824001|    0.011997|
|         293|   -5.956608|   -8.459789|    0.824001|    0.011997|
|         294|   -5.963391|   -8.458196|    0.824001|    0.011997|
|         295|   -5.969762|   -8.457332|    0.824001|    0.011997|
|         296|   -5.975701|   -8.457226|    0.824001|    0.011996|
|         297|   -5.981198|   -8.457895|    0.824001|    0.011996|
|         298|   -5.986247|   -8.459345|    0.824001|    0.011996|
|         299|   -5.990853|   -8.461575|    0.824001|    0.011996|
|         300|   -5.995024|   -8.464572|    0.824001|    0.011996|
|         301|   -5.998774|   -8.468319|    0.824001|    0.011996|
+-----------------------------------------------------------------------+
|Fixed CL Mode                           |Value                         |
+-----------------------------------------------------------------------+
|Current CL                              |0.824001                      |
|Target CL                               |0.824                         |
|Previous AOA                            |2.76622                       |
|Changed AoA by                          |-3.55381e-06                  |
+-----------------------------------------------------------------------+
+----------------------------------------------------------------+
|  Inner_Iter|    rms[Rho]|     rms[nu]|          CL|          CD|
+----------------------------------------------------------------+
|         302|   -5.603516|   -8.471866|    0.824001|    0.011996|
|         303|   -5.857115|   -8.477333|    0.824001|    0.011995|
|         304|   -5.936520|   -8.483213|    0.824001|    0.011995|
|         305|   -5.953474|   -8.489649|    0.824001|    0.011995|
|         306|   -5.965408|   -8.496613|    0.824002|    0.011995|
|         307|   -5.978227|   -8.504043|    0.824002|    0.011995|
|         308|   -5.990155|   -8.511867|    0.824002|    0.011995|
|         309|   -5.999438|   -8.520009|    0.824002|    0.011995|
|         310|   -6.005775|   -8.528385|    0.824002|    0.011995|
|         311|   -6.009834|   -8.536910|    0.824003|    0.011995|
|         312|   -6.012342|   -8.545494|    0.824003|    0.011995|
|         313|   -6.013750|   -8.554051|    0.824003|    0.011995|
|         314|   -6.014334|   -8.562497|    0.824003|    0.011994|
|         315|   -6.014341|   -8.570757|    0.824004|    0.011994|
|         316|   -6.014004|   -8.578760|    0.824004|    0.011994|
|         317|   -6.013495|   -8.586451|    0.824004|    0.011994|
|         318|   -6.012895|   -8.593789|    0.824004|    0.011994|
|         319|   -6.012213|   -8.600747|    0.824005|    0.011994|
|         320|   -6.011432|   -8.607314|    0.824005|    0.011994|
|         321|   -6.010547|   -8.613495|    0.824005|    0.011994|
|         322|   -6.009576|   -8.619307|    0.824005|    0.011994|
|         323|   -6.008552|   -8.624777|    0.824006|    0.011994|
|         324|   -6.007509|   -8.629940|    0.824006|    0.011994|
|         325|   -6.006473|   -8.634835|    0.824006|    0.011994|
|         326|   -6.005465|   -8.639502|    0.824006|    0.011994|
|         327|   -6.004506|   -8.643981|    0.824007|    0.011994|
|         328|   -6.003618|   -8.648307|    0.824007|    0.011994|
|         329|   -6.002830|   -8.652509|    0.824007|    0.011994|
|         330|   -6.002168|   -8.656606|    0.824008|    0.011994|
|         331|   -6.001659|   -8.660607|    0.824008|    0.011994|
|         332|   -6.001326|   -8.664509|    0.824008|    0.011994|
|         333|   -6.001192|   -8.668299|    0.824008|    0.011994|
|         334|   -6.001277|   -8.671953|    0.824009|    0.011994|
|         335|   -6.001599|   -8.675437|    0.824009|    0.011994|
|         336|   -6.002172|   -8.678707|    0.824009|    0.011994|
|         337|   -6.003010|   -8.681718|    0.824010|    0.011994|
|         338|   -6.004124|   -8.684420|    0.824010|    0.011995|
|         339|   -6.005522|   -8.686763|    0.824010|    0.011995|
|         340|   -6.007212|   -8.688703|    0.824010|    0.011995|
|         341|   -6.009198|   -8.690201|    0.824011|    0.011995|
|         342|   -6.011484|   -8.691229|    0.824011|    0.011995|
|         343|   -6.014073|   -8.691770|    0.824011|    0.011995|
|         344|   -6.016968|   -8.691824|    0.824011|    0.011995|
|         345|   -6.020170|   -8.691403|    0.824012|    0.011995|
|         346|   -6.023679|   -8.690536|    0.824012|    0.011995|
|         347|   -6.027496|   -8.689265|    0.824012|    0.011995|
|         348|   -6.031616|   -8.687644|    0.824012|    0.011995|
|         349|   -6.036034|   -8.685738|    0.824012|    0.011995|
|         350|   -6.040740|   -8.683618|    0.824012|    0.011995|
|         351|   -6.045722|   -8.681363|    0.824012|    0.011995|
|         352|   -6.050962|   -8.679050|    0.824013|    0.011995|
|         353|   -6.056440|   -8.676757|    0.824013|    0.011995|
|         354|   -6.062133|   -8.674562|    0.824013|    0.011996|
|         355|   -6.068016|   -8.672535|    0.824013|    0.011996|
|         356|   -6.074059|   -8.670742|    0.824013|    0.011996|
|         357|   -6.080229|   -8.669243|    0.824013|    0.011996|
|         358|   -6.086492|   -8.668091|    0.824013|    0.011996|
|         359|   -6.092808|   -8.667329|    0.824013|    0.011996|
|         360|   -6.099136|   -8.666993|    0.824013|    0.011996|
|         361|   -6.105431|   -8.667110|    0.824013|    0.011996|
|         362|   -6.111643|   -8.667698|    0.824013|    0.011996|
|         363|   -6.117723|   -8.668768|    0.824013|    0.011996|
|         364|   -6.123618|   -8.670319|    0.824012|    0.011996|
|         365|   -6.129275|   -8.672344|    0.824012|    0.011996|
|         366|   -6.134642|   -8.674826|    0.824012|    0.011996|
|         367|   -6.139670|   -8.677737|    0.824012|    0.011996|
|         368|   -6.144314|   -8.681041|    0.824012|    0.011996|
|         369|   -6.148533|   -8.684694|    0.824012|    0.011996|
|         370|   -6.152293|   -8.688639|    0.824011|    0.011996|
|         371|   -6.155571|   -8.692815|    0.824011|    0.011996|
|         372|   -6.158351|   -8.697148|    0.824011|    0.011996|
|         373|   -6.160626|   -8.701559|    0.824011|    0.011996|
|         374|   -6.162404|   -8.705962|    0.824011|    0.011996|
|         375|   -6.163697|   -8.710268|    0.824010|    0.011996|
|         376|   -6.164533|   -8.714385|    0.824010|    0.011997|
|         377|   -6.164944|   -8.718223|    0.824010|    0.011997|
|         378|   -6.164972|   -8.721698|    0.824010|    0.011997|
|         379|   -6.164665|   -8.724730|    0.824009|    0.011997|
|         380|   -6.164074|   -8.727255|    0.824009|    0.011997|
|         381|   -6.163256|   -8.729222|    0.824009|    0.011997|
|         382|   -6.162265|   -8.730596|    0.824009|    0.011997|
|         383|   -6.161159|   -8.731365|    0.824008|    0.011997|
|         384|   -6.159993|   -8.731532|    0.824008|    0.011997|
|         385|   -6.158820|   -8.731121|    0.824008|    0.011997|
|         386|   -6.157687|   -8.730174|    0.824007|    0.011997|
|         387|   -6.156642|   -8.728747|    0.824007|    0.011997|
|         388|   -6.155724|   -8.726907|    0.824007|    0.011997|
|         389|   -6.154969|   -8.724729|    0.824007|    0.011997|
|         390|   -6.154409|   -8.722290|    0.824006|    0.011997|
|         391|   -6.154071|   -8.719672|    0.824006|    0.011997|
|         392|   -6.153974|   -8.716949|    0.824006|    0.011997|
|         393|   -6.154136|   -8.714196|    0.824006|    0.011997|
|         394|   -6.154569|   -8.711476|    0.824006|    0.011997|
|         395|   -6.155281|   -8.708845|    0.824005|    0.011997|
|         396|   -6.156274|   -8.706352|    0.824005|    0.011997|
|         397|   -6.157548|   -8.704034|    0.824005|    0.011996|
|         398|   -6.159101|   -8.701918|    0.824005|    0.011996|
|         399|   -6.160925|   -8.700023|    0.824005|    0.011996|
|         400|   -6.163010|   -8.698359|    0.824004|    0.011996|
|         401|   -6.165346|   -8.696926|    0.824004|    0.011996|
+-----------------------------------------------------------------------+
|Fixed CL Mode                           |Value                         |
+-----------------------------------------------------------------------+
|Current CL                              |0.824004                      |
|Target CL                               |0.824                         |
|Previous AOA                            |2.76622                       |
|Changed AoA by                          |-2.24392e-05                  |
+-----------------------------------------------------------------------+
+----------------------------------------------------------------+
|  Inner_Iter|    rms[Rho]|     rms[nu]|          CL|          CD|
+----------------------------------------------------------------+
|         402|   -4.841990|   -8.633688|    0.824004|    0.011996|
|         403|   -5.224418|   -8.661892|    0.824004|    0.011996|
|         404|   -5.462182|   -8.670748|    0.824004|    0.011996|
|         405|   -5.536180|   -8.675538|    0.824004|    0.011996|
|         406|   -5.586034|   -8.678738|    0.824004|    0.011996|
|         407|   -5.650381|   -8.680980|    0.824004|    0.011996|
|         408|   -5.728252|   -8.682550|    0.824004|    0.011996|
|         409|   -5.806782|   -8.683659|    0.824004|    0.011996|
|         410|   -5.871772|   -8.684453|    0.824004|    0.011996|
|         411|   -5.918025|   -8.684999|    0.824003|    0.011996|
|         412|   -5.948522|   -8.685343|    0.824003|    0.011996|
|         413|   -5.967057|   -8.685563|    0.824003|    0.011996|
|         414|   -5.976712|   -8.685756|    0.824003|    0.011996|
|         415|   -5.981660|   -8.685978|    0.824003|    0.011996|
|         416|   -5.986640|   -8.686234|    0.824003|    0.011996|
|         417|   -5.994928|   -8.686502|    0.824003|    0.011996|
|         418|   -6.007333|   -8.686765|    0.824003|    0.011996|
|         419|   -6.022593|   -8.687030|    0.824003|    0.011996|
|         420|   -6.038584|   -8.687318|    0.824004|    0.011996|
|         421|   -6.053653|   -8.687655|    0.824004|    0.011996|
|         422|   -6.067372|   -8.688049|    0.824004|    0.011996|
|         423|   -6.080322|   -8.688506|    0.824004|    0.011996|
|         424|   -6.093294|   -8.689025|    0.824004|    0.011995|
|         425|   -6.106636|   -8.689609|    0.824004|    0.011995|
|         426|   -6.120088|   -8.690267|    0.824004|    0.011995|
|         427|   -6.133010|   -8.691014|    0.824004|    0.011995|
|         428|   -6.144714|   -8.691872|    0.824004|    0.011995|
|         429|   -6.154696|   -8.692860|    0.824004|    0.011995|
|         430|   -6.162740|   -8.693999|    0.824004|    0.011995|
|         431|   -6.168927|   -8.695302|    0.824004|    0.011995|
|         432|   -6.173603|   -8.696777|    0.824005|    0.011995|
|         433|   -6.177316|   -8.698425|    0.824005|    0.011995|
|         434|   -6.180693|   -8.700233|    0.824005|    0.011995|
|         435|   -6.184307|   -8.702178|    0.824005|    0.011995|
|         436|   -6.188549|   -8.704228|    0.824005|    0.011995|
|         437|   -6.193575|   -8.706338|    0.824005|    0.011995|
|         438|   -6.199289|   -8.708462|    0.824005|    0.011995|
|         439|   -6.205381|   -8.710545|    0.824005|    0.011995|
|         440|   -6.211390|   -8.712533|    0.824005|    0.011995|
|         441|   -6.216794|   -8.714373|    0.824006|    0.011995|
|         442|   -6.221128|   -8.716013|    0.824006|    0.011995|
|         443|   -6.224085|   -8.717406|    0.824006|    0.011995|
|         444|   -6.225597|   -8.718511|    0.824006|    0.011995|
|         445|   -6.225837|   -8.719294|    0.824006|    0.011995|
|         446|   -6.225157|   -8.719725|    0.824006|    0.011995|
|         447|   -6.223978|   -8.719782|    0.824006|    0.011995|
|         448|   -6.222690|   -8.719452|    0.824006|    0.011995|
|         449|   -6.221574|   -8.718729|    0.824006|    0.011995|
|         450|   -6.220778|   -8.717615|    0.824007|    0.011995|
|         451|   -6.220320|   -8.716122|    0.824007|    0.011995|
|         452|   -6.220130|   -8.714273|    0.824007|    0.011995|
|         453|   -6.220092|   -8.712099|    0.824007|    0.011995|
|         454|   -6.220091|   -8.709641|    0.824007|    0.011995|
|         455|   -6.220045|   -8.706950|    0.824007|    0.011995|
|         456|   -6.219923|   -8.704083|    0.824007|    0.011995|
|         457|   -6.219746|   -8.701100|    0.824007|    0.011995|
|         458|   -6.219574|   -8.698074|    0.824007|    0.011996|
|         459|   -6.219491|   -8.695070|    0.824007|    0.011996|
|         460|   -6.219585|   -8.692156|    0.824007|    0.011996|
|         461|   -6.219934|   -8.689404|    0.824007|    0.011996|
|         462|   -6.220598|   -8.686876|    0.824007|    0.011996|
|         463|   -6.221616|   -8.684634|    0.824007|    0.011996|
|         464|   -6.223008|   -8.682732|    0.824007|    0.011996|
|         465|   -6.224784|   -8.681221|    0.824007|    0.011996|
|         466|   -6.226942|   -8.680143|    0.824007|    0.011996|
|         467|   -6.229479|   -8.679532|    0.824006|    0.011996|
|         468|   -6.232389|   -8.679413|    0.824006|    0.011996|
|         469|   -6.235670|   -8.679801|    0.824006|    0.011996|
|         470|   -6.239315|   -8.680703|    0.824006|    0.011996|
|         471|   -6.243319|   -8.682115|    0.824006|    0.011996|
|         472|   -6.247676|   -8.684022|    0.824006|    0.011996|
|         473|   -6.252372|   -8.686401|    0.824006|    0.011996|
|         474|   -6.257392|   -8.689213|    0.824006|    0.011996|
|         475|   -6.262716|   -8.692411|    0.824005|    0.011996|
|         476|   -6.268317|   -8.695937|    0.824005|    0.011996|
|         477|   -6.274165|   -8.699723|    0.824005|    0.011996|
|         478|   -6.280225|   -8.703694|    0.824005|    0.011996|
|         479|   -6.286457|   -8.707766|    0.824005|    0.011996|
|         480|   -6.292816|   -8.711852|    0.824005|    0.011996|
|         481|   -6.299255|   -8.715866|    0.824005|    0.011996|
|         482|   -6.305723|   -8.719721|    0.824005|    0.011996|
|         483|   -6.312163|   -8.723339|    0.824004|    0.011996|
|         484|   -6.318519|   -8.726651|    0.824004|    0.011996|
|         485|   -6.324730|   -8.729601|    0.824004|    0.011996|
|         486|   -6.330738|   -8.732150|    0.824004|    0.011996|
|         487|   -6.336482|   -8.734279|    0.824004|    0.011996|
|         488|   -6.341904|   -8.735988|    0.824004|    0.011996|
|         489|   -6.346950|   -8.737295|    0.824004|    0.011996|
|         490|   -6.351571|   -8.738239|    0.824004|    0.011996|
|         491|   -6.355724|   -8.738873|    0.824004|    0.011996|
|         492|   -6.359375|   -8.739261|    0.824004|    0.011996|
|         493|   -6.362498|   -8.739477|    0.824004|    0.011995|
|         494|   -6.365078|   -8.739601|    0.824004|    0.011995|
|         495|   -6.367109|   -8.739711|    0.824004|    0.011995|
|         496|   -6.368596|   -8.739885|    0.824004|    0.011995|
|         497|   -6.369556|   -8.740195|    0.824004|    0.011995|
|         498|   -6.370012|   -8.740707|    0.824004|    0.011995|
|         499|   -6.369997|   -8.741475|    0.824004|    0.011995|
|         500|   -6.369551|   -8.742546|    0.824004|    0.011995|
|         501|   -6.368721|   -8.743957|    0.824004|    0.011995|
+-----------------------------------------------------------------------+
|Fixed CL Mode                           |Value                         |
+-----------------------------------------------------------------------+
|Current CL                              |0.824004                      |
|Target CL                               |0.824                         |
|Previous AOA                            |2.7662                        |
|Changed AoA by                          |-1.86043e-05                  |
+-----------------------------------------------------------------------+
+----------------------------------------------------------------+
|  Inner_Iter|    rms[Rho]|     rms[nu]|          CL|          CD|
+----------------------------------------------------------------+
|         502|   -4.923717|   -8.693221|    0.824004|    0.011995|
|         503|   -5.308171|   -8.720883|    0.824004|    0.011995|
|         504|   -5.550856|   -8.731425|    0.824004|    0.011995|
|         505|   -5.626766|   -8.738687|    0.824004|    0.011995|
|         506|   -5.676988|   -8.744906|    0.824004|    0.011995|
|         507|   -5.742054|   -8.750607|    0.824004|    0.011995|
|         508|   -5.821377|   -8.755968|    0.824004|    0.011995|
|         509|   -5.901697|   -8.761109|    0.824004|    0.011995|
|         510|   -5.967832|   -8.766105|    0.824004|    0.011995|
|         511|   -6.013931|   -8.770971|    0.824004|    0.011995|
|         512|   -6.043199|   -8.775700|    0.824004|    0.011995|
|         513|   -6.059977|   -8.780342|    0.824004|    0.011995|
|         514|   -6.067803|   -8.784952|    0.824004|    0.011995|
|         515|   -6.071153|   -8.789556|    0.824004|    0.011995|
|         516|   -6.074869|   -8.794122|    0.824004|    0.011995|
|         517|   -6.082175|   -8.798572|    0.824004|    0.011995|
|         518|   -6.093746|   -8.802839|    0.824004|    0.011995|
|         519|   -6.108186|   -8.806878|    0.824004|    0.011995|
|         520|   -6.123277|   -8.810660|    0.824004|    0.011995|
|         521|   -6.137351|   -8.814147|    0.824004|    0.011995|
|         522|   -6.150032|   -8.817290|    0.824004|    0.011995|
|         523|   -6.161989|   -8.820031|    0.824004|    0.011995|
|         524|   -6.174104|   -8.822310|    0.824004|    0.011995|
|         525|   -6.186807|   -8.824088|    0.824004|    0.011995|
|         526|   -6.199907|   -8.825342|    0.824004|    0.011995|
|         527|   -6.212816|   -8.826075|    0.824004|    0.011995|
|         528|   -6.224863|   -8.826311|    0.824004|    0.011995|
|         529|   -6.235524|   -8.826096|    0.824004|    0.011995|
|         530|   -6.244525|   -8.825488|    0.824004|    0.011995|
|         531|   -6.251874|   -8.824553|    0.824004|    0.011995|
|         532|   -6.257862|   -8.823363|    0.824004|    0.011995|
|         533|   -6.263011|   -8.821986|    0.824004|    0.011995|
|         534|   -6.267971|   -8.820483|    0.824004|    0.011995|
|         535|   -6.273378|   -8.818910|    0.824004|    0.011995|
|         536|   -6.279718|   -8.817312|    0.824004|    0.011995|
|         537|   -6.287252|   -8.815725|    0.824004|    0.011995|
|         538|   -6.295986|   -8.814183|    0.824004|    0.011995|
|         539|   -6.305686|   -8.812709|    0.824004|    0.011995|
|         540|   -6.315923|   -8.811326|    0.824004|    0.011995|
|         541|   -6.326147|   -8.810052|    0.824004|    0.011995|
|         542|   -6.335794|   -8.808904|    0.824004|    0.011995|
|         543|   -6.344410|   -8.807898|    0.824004|    0.011995|
|         544|   -6.351758|   -8.807046|    0.824004|    0.011995|
|         545|   -6.357871|   -8.806357|    0.824004|    0.011995|
|         546|   -6.363017|   -8.805839|    0.824004|    0.011995|
|         547|   -6.367596|   -8.805492|    0.824004|    0.011995|
|         548|   -6.372016|   -8.805312|    0.824004|    0.011995|
|         549|   -6.376591|   -8.805289|    0.824004|    0.011995|
|         550|   -6.381475|   -8.805410|    0.824004|    0.011995|
|         551|   -6.386657|   -8.805654|    0.824004|    0.011995|
|         552|   -6.391989|   -8.805997|    0.824003|    0.011995|
|         553|   -6.397241|   -8.806414|    0.824003|    0.011995|
|         554|   -6.402165|   -8.806872|    0.824003|    0.011995|
|         555|   -6.406548|   -8.807344|    0.824003|    0.011995|
|         556|   -6.410259|   -8.807797|    0.824003|    0.011995|
|         557|   -6.413257|   -8.808202|    0.824003|    0.011995|
|         558|   -6.415586|   -8.808530|    0.824003|    0.011995|
|         559|   -6.417346|   -8.808765|    0.824003|    0.011995|
|         560|   -6.418664|   -8.808886|    0.824003|    0.011995|
|         561|   -6.419664|   -8.808884|    0.824002|    0.011995|
|         562|   -6.420449|   -8.808754|    0.824002|    0.011995|
|         563|   -6.421097|   -8.808499|    0.824002|    0.011995|
|         564|   -6.421658|   -8.808135|    0.824002|    0.011995|
|         565|   -6.422167|   -8.807678|    0.824002|    0.011996|
|         566|   -6.422646|   -8.807154|    0.824002|    0.011996|
|         567|   -6.423117|   -8.806596|    0.824002|    0.011996|
|         568|   -6.423604|   -8.806042|    0.824001|    0.011996|
|         569|   -6.424136|   -8.805526|    0.824001|    0.011996|
|         570|   -6.424745|   -8.805096|    0.824001|    0.011996|
|         571|   -6.425464|   -8.804788|    0.824001|    0.011996|
|         572|   -6.426326|   -8.804639|    0.824001|    0.011996|
|         573|   -6.427360|   -8.804683|    0.824001|    0.011996|
|         574|   -6.428594|   -8.804948|    0.824001|    0.011996|
|         575|   -6.430049|   -8.805454|    0.824000|    0.011996|
|         576|   -6.431745|   -8.806217|    0.824000|    0.011996|
|         577|   -6.433697|   -8.807243|    0.824000|    0.011996|
|         578|   -6.435920|   -8.808529|    0.824000|    0.011996|
|         579|   -6.438423|   -8.810064|    0.824000|    0.011996|
|         580|   -6.441217|   -8.811830|    0.824000|    0.011996|
|         581|   -6.444309|   -8.813801|    0.824000|    0.011996|
|         582|   -6.447705|   -8.815942|    0.823999|    0.011996|
|         583|   -6.451410|   -8.818216|    0.823999|    0.011996|
|         584|   -6.455424|   -8.820578|    0.823999|    0.011996|
|         585|   -6.459748|   -8.822985|    0.823999|    0.011996|
|         586|   -6.464378|   -8.825390|    0.823999|    0.011996|
|         587|   -6.469309|   -8.827750|    0.823999|    0.011996|
|         588|   -6.474534|   -8.830024|    0.823999|    0.011996|
|         589|   -6.480041|   -8.832179|    0.823999|    0.011996|
|         590|   -6.485817|   -8.834189|    0.823999|    0.011996|
|         591|   -6.491845|   -8.836035|    0.823999|    0.011996|
|         592|   -6.498104|   -8.837710|    0.823999|    0.011996|
|         593|   -6.504571|   -8.839217|    0.823999|    0.011996|
|         594|   -6.511217|   -8.840567|    0.823999|    0.011996|
|         595|   -6.518011|   -8.841782|    0.823999|    0.011996|
|         596|   -6.524916|   -8.842889|    0.823999|    0.011996|
|         597|   -6.531892|   -8.843923|    0.823999|    0.011996|
|         598|   -6.538895|   -8.844920|    0.823999|    0.011996|
|         599|   -6.545876|   -8.845920|    0.823999|    0.011996|
|         600|   -6.552784|   -8.846960|    0.823999|    0.011996|
|         601|   -6.559564|   -8.848078|    0.823999|    0.011996|
+-----------------------------------------------------------------------+
|Fixed CL Mode                           |Value                         |
+-----------------------------------------------------------------------+
|Current CL                              |0.823999                      |
|Target CL                               |0.824                         |
|Previous AOA                            |2.76618                       |
|Changed AoA by                          |6.01316e-06                   |
+-----------------------------------------------------------------------+
+----------------------------------------------------------------+
|  Inner_Iter|    rms[Rho]|     rms[nu]|          CL|          CD|
+----------------------------------------------------------------+
|         602|   -5.413012|   -8.839089|    0.823999|    0.011996|
|         603|   -5.792618|   -8.845407|    0.823999|    0.011996|
|         604|   -6.026975|   -8.848346|    0.823999|    0.011996|
|         605|   -6.101499|   -8.850773|    0.823999|    0.011996|
|         606|   -6.151336|   -8.853148|    0.823999|    0.011996|
|         607|   -6.213220|   -8.855588|    0.823999|    0.011996|
|         608|   -6.285134|   -8.858130|    0.823999|    0.011996|
|         609|   -6.353503|   -8.860785|    0.823999|    0.011996|
|         610|   -6.405265|   -8.863549|    0.823999|    0.011996|
|         611|   -6.437898|   -8.866404|    0.823999|    0.011996|
|         612|   -6.456426|   -8.869327|    0.823999|    0.011995|
|         613|   -6.465681|   -8.872305|    0.823999|    0.011995|
|         614|   -6.469022|   -8.875332|    0.823999|    0.011995|
|         615|   -6.469828|   -8.878400|    0.823999|    0.011995|
|         616|   -6.471338|   -8.881494|    0.823999|    0.011995|
|         617|   -6.475494|   -8.884599|    0.823999|    0.011995|
|         618|   -6.482419|   -8.887704|    0.823999|    0.011995|
|         619|   -6.490835|   -8.890803|    0.824000|    0.011995|
|         620|   -6.499026|   -8.893899|    0.824000|    0.011995|
|         621|   -6.505794|   -8.896998|    0.824000|    0.011995|
|         622|   -6.510901|   -8.900107|    0.824000|    0.011995|
|         623|   -6.514829|   -8.903233|    0.824000|    0.011995|
|         624|   -6.518234|   -8.906385|    0.824000|    0.011995|
|         625|   -6.521550|   -8.909572|    0.824000|    0.011995|
|         626|   -6.524901|   -8.912803|    0.824000|    0.011995|
|         627|   -6.528221|   -8.916089|    0.824000|    0.011995|
|         628|   -6.531391|   -8.919437|    0.824000|    0.011995|
|         629|   -6.534318|   -8.922852|    0.824000|    0.011995|
|         630|   -6.536948|   -8.926334|    0.824000|    0.011995|
|         631|   -6.539282|   -8.929879|    0.824000|    0.011995|
|         632|   -6.541382|   -8.933479|    0.824000|    0.011995|
|         633|   -6.543380|   -8.937122|    0.824000|    0.011995|
|         634|   -6.545463|   -8.940792|    0.824000|    0.011995|
|         635|   -6.547836|   -8.944471|    0.824000|    0.011995|
|         636|   -6.550678|   -8.948137|    0.824000|    0.011995|
|         637|   -6.554108|   -8.951768|    0.824000|    0.011995|
|         638|   -6.558173|   -8.955343|    0.824000|    0.011995|
|         639|   -6.562843|   -8.958841|    0.824000|    0.011995|
|         640|   -6.568025|   -8.962243|    0.824000|    0.011995|
|         641|   -6.573590|   -8.965537|    0.824000|    0.011995|
|         642|   -6.579401|   -8.968712|    0.824000|    0.011995|
|         643|   -6.585346|   -8.971767|    0.824000|    0.011995|
|         644|   -6.591366|   -8.974703|    0.824000|    0.011995|
|         645|   -6.597469|   -8.977530|    0.824000|    0.011995|
|         646|   -6.603719|   -8.980263|    0.824000|    0.011995|
|         647|   -6.610217|   -8.982923|    0.824000|    0.011995|
|         648|   -6.617069|   -8.985536|    0.824000|    0.011995|
|         649|   -6.624357|   -8.988132|    0.824000|    0.011995|
|         650|   -6.632122|   -8.990742|    0.824000|    0.011995|
|         651|   -6.640353|   -8.993402|    0.824000|    0.011995|
|         652|   -6.648996|   -8.996147|    0.824000|    0.011995|
|         653|   -6.657966|   -8.999008|    0.824000|    0.011995|
|         654|   -6.667162|   -9.002018|    0.824000|    0.011995|
|         655|   -6.676487|   -9.005204|    0.824000|    0.011995|
|         656|   -6.685856|   -9.008588|    0.824000|    0.011995|
|         657|   -6.695206|   -9.012188|    0.824000|    0.011995|
|         658|   -6.704496|   -9.016014|    0.824000|    0.011995|
|         659|   -6.713700|   -9.020067|    0.824000|    0.011995|
|         660|   -6.722799|   -9.024343|    0.824000|    0.011995|
|         661|   -6.731774|   -9.028825|    0.824000|    0.011995|
|         662|   -6.740597|   -9.033489|    0.824001|    0.011995|
|         663|   -6.749230|   -9.038302|    0.824001|    0.011995|
|         664|   -6.757624|   -9.043223|    0.824001|    0.011995|
|         665|   -6.765721|   -9.048201|    0.824001|    0.011995|
|         666|   -6.773461|   -9.053181|    0.824001|    0.011995|
|         667|   -6.780781|   -9.058098|    0.824001|    0.011995|
|         668|   -6.787627|   -9.062889|    0.824001|    0.011995|
|         669|   -6.793951|   -9.067488|    0.824001|    0.011995|
|         670|   -6.799714|   -9.071830|    0.824001|    0.011996|
|         671|   -6.804889|   -9.075856|    0.824001|    0.011996|
|         672|   -6.809461|   -9.079516|    0.824001|    0.011996|
|         673|   -6.813424|   -9.082769|    0.824001|    0.011996|
|         674|   -6.816784|   -9.085588|    0.824001|    0.011996|
|         675|   -6.819559|   -9.087963|    0.824001|    0.011996|
|         676|   -6.821776|   -9.089898|    0.824001|    0.011996|
|         677|   -6.823472|   -9.091414|    0.824001|    0.011996|
|         678|   -6.824693|   -9.092547|    0.824001|    0.011996|
|         679|   -6.825494|   -9.093346|    0.824002|    0.011996|
|         680|   -6.825935|   -9.093870|    0.824002|    0.011996|
|         681|   -6.826080|   -9.094188|    0.824002|    0.011996|
|         682|   -6.825996|   -9.094372|    0.824002|    0.011996|
|         683|   -6.825751|   -9.094496|    0.824002|    0.011996|
|         684|   -6.825412|   -9.094631|    0.824001|    0.011996|
|         685|   -6.825045|   -9.094848|    0.824001|    0.011996|
|         686|   -6.824712|   -9.095206|    0.824001|    0.011996|
|         687|   -6.824471|   -9.095762|    0.824001|    0.011996|
|         688|   -6.824376|   -9.096560|    0.824001|    0.011996|
|         689|   -6.824479|   -9.097634|    0.824001|    0.011996|
|         690|   -6.824824|   -9.099008|    0.824001|    0.011996|
|         691|   -6.825452|   -9.100697|    0.824001|    0.011996|
|         692|   -6.826400|   -9.102703|    0.824001|    0.011996|
|         693|   -6.827699|   -9.105017|    0.824001|    0.011996|
|         694|   -6.829377|   -9.107623|    0.824001|    0.011996|
|         695|   -6.831458|   -9.110493|    0.824001|    0.011996|
|         696|   -6.833959|   -9.113592|    0.824001|    0.011996|
|         697|   -6.836898|   -9.116878|    0.824001|    0.011996|
|         698|   -6.840284|   -9.120303|    0.824001|    0.011996|
|         699|   -6.844128|   -9.123816|    0.824001|    0.011996|
|         700|   -6.848432|   -9.127360|    0.824001|    0.011996|
|         701|   -6.853199|   -9.130883|    0.824001|    0.011996|
+-----------------------------------------------------------------------+
|Fixed CL Mode                           |Value                         |
+-----------------------------------------------------------------------+
|Current CL                              |0.824001                      |
|Target CL                               |0.824                         |
|Previous AOA                            |2.76618                       |
|Changed AoA by                          |-3.02903e-06                  |
+-----------------------------------------------------------------------+
+----------------------------------------------------------------+
|  Inner_Iter|    rms[Rho]|     rms[nu]|          CL|          CD|
+----------------------------------------------------------------+
|         702|   -5.711362|   -9.125720|    0.824000|    0.011996|
|         703|   -6.093521|   -9.133504|    0.824000|    0.011996|
|         704|   -6.332436|   -9.137808|    0.824000|    0.011996|
|         705|   -6.406984|   -9.141316|    0.824000|    0.011996|
|         706|   -6.455099|   -9.144415|    0.824000|    0.011996|
|         707|   -6.515410|   -9.147160|    0.824000|    0.011996|
|         708|   -6.586298|   -9.149539|    0.824000|    0.011996|
|         709|   -6.654508|   -9.151538|    0.824000|    0.011996|
|         710|   -6.707300|   -9.153156|    0.824000|    0.011996|
|         711|   -6.742135|   -9.154404|    0.824000|    0.011996|
|         712|   -6.763736|   -9.155307|    0.824000|    0.011996|
|         713|   -6.776613|   -9.155912|    0.824000|    0.011996|
|         714|   -6.783868|   -9.156273|    0.824000|    0.011996|
|         715|   -6.788793|   -9.156446|    0.824000|    0.011996|
|         716|   -6.794746|   -9.156473|    0.824000|    0.011996|
|         717|   -6.803888|   -9.156394|    0.823999|    0.011996|
|         718|   -6.816493|   -9.156246|    0.823999|    0.011996|
|         719|   -6.831246|   -9.156064|    0.823999|    0.011996|
|         720|   -6.846198|   -9.155883|    0.823999|    0.011996|
|         721|   -6.859862|   -9.155733|    0.823999|    0.011996|
|         722|   -6.871827|   -9.155638|    0.823999|    0.011996|
|         723|   -6.882596|   -9.155617|    0.823999|    0.011996|
|         724|   -6.892940|   -9.155685|    0.823999|    0.011996|
|         725|   -6.903352|   -9.155854|    0.823999|    0.011996|
|         726|   -6.913885|   -9.156135|    0.823999|    0.011996|
|         727|   -6.924280|   -9.156536|    0.823999|    0.011996|
|         728|   -6.934172|   -9.157067|    0.823999|    0.011996|
|         729|   -6.943225|   -9.157735|    0.823999|    0.011996|
|         730|   -6.951197|   -9.158547|    0.823999|    0.011996|
|         731|   -6.957979|   -9.159511|    0.823999|    0.011995|
|         732|   -6.963625|   -9.160635|    0.823999|    0.011995|
|         733|   -6.968370|   -9.161926|    0.823999|    0.011995|
|         734|   -6.972580|   -9.163394|    0.823999|    0.011995|
|         735|   -6.976665|   -9.165046|    0.823999|    0.011995|
|         736|   -6.980985|   -9.166890|    0.823999|    0.011995|
|         737|   -6.985769|   -9.168937|    0.823999|    0.011995|
|         738|   -6.991086|   -9.171194|    0.823999|    0.011995|
|         739|   -6.996847|   -9.173671|    0.823999|    0.011995|
|         740|   -7.002831|   -9.176373|    0.823999|    0.011995|
|         741|   -7.008742|   -9.179306|    0.823999|    0.011995|
|         742|   -7.014279|   -9.182474|    0.823999|    0.011995|
|         743|   -7.019210|   -9.185880|    0.823999|    0.011995|
|         744|   -7.023435|   -9.189524|    0.823999|    0.011995|
|         745|   -7.027000|   -9.193405|    0.823999|    0.011995|
|         746|   -7.030084|   -9.197521|    0.823999|    0.011995|
|         747|   -7.032932|   -9.201867|    0.823999|    0.011995|
|         748|   -7.035793|   -9.206436|    0.823999|    0.011995|
|         749|   -7.038856|   -9.211221|    0.823999|    0.011995|
|         750|   -7.042223|   -9.216210|    0.823999|    0.011995|
|         751|   -7.045899|   -9.221391|    0.823999|    0.011995|
|         752|   -7.049811|   -9.226750|    0.823999|    0.011995|
|         753|   -7.053835|   -9.232271|    0.823999|    0.011995|
|         754|   -7.057835|   -9.237938|    0.823999|    0.011995|
|         755|   -7.061687|   -9.243734|    0.823999|    0.011995|
|         756|   -7.065305|   -9.249643|    0.823999|    0.011995|
|         757|   -7.068642|   -9.255650|    0.824000|    0.011995|
|         758|   -7.071693|   -9.261738|    0.824000|    0.011995|
|         759|   -7.074479|   -9.267897|    0.824000|    0.011995|
|         760|   -7.077033|   -9.274116|    0.824000|    0.011995|
|         761|   -7.079386|   -9.280385|    0.824000|    0.011995|
|         762|   -7.081561|   -9.286699|    0.824000|    0.011995|
|         763|   -7.083568|   -9.293055|    0.824000|    0.011995|
|         764|   -7.085402|   -9.299451|    0.824000|    0.011995|
|         765|   -7.087052|   -9.305886|    0.824000|    0.011995|
|         766|   -7.088502|   -9.312360|    0.824000|    0.011995|
|         767|   -7.089735|   -9.318876|    0.824000|    0.011995|
|         768|   -7.090738|   -9.325431|    0.824000|    0.011995|
|         769|   -7.091505|   -9.332026|    0.824000|    0.011995|
|         770|   -7.092031|   -9.338655|    0.824000|    0.011995|
|         771|   -7.092318|   -9.345311|    0.824000|    0.011995|
|         772|   -7.092370|   -9.351984|    0.824000|    0.011995|
|         773|   -7.092193|   -9.358659|    0.824000|    0.011995|
|         774|   -7.091793|   -9.365316|    0.824000|    0.011995|
|         775|   -7.091181|   -9.371935|    0.824000|    0.011995|
|         776|   -7.090367|   -9.378490|    0.824000|    0.011995|
|         777|   -7.089363|   -9.384955|    0.824000|    0.011995|
|         778|   -7.088184|   -9.391302|    0.824000|    0.011995|
|         779|   -7.086847|   -9.397505|    0.824000|    0.011995|
|         780|   -7.085368|   -9.403541|    0.824000|    0.011995|
|         781|   -7.083767|   -9.409387|    0.824000|    0.011995|
|         782|   -7.082066|   -9.415029|    0.824000|    0.011995|
|         783|   -7.080286|   -9.420456|    0.824000|    0.011995|
|         784|   -7.078450|   -9.425666|    0.824000|    0.011995|
|         785|   -7.076580|   -9.430661|    0.824000|    0.011995|
|         786|   -7.074698|   -9.435453|    0.824000|    0.011995|
|         787|   -7.072828|   -9.440056|    0.824000|    0.011996|
|         788|   -7.070992|   -9.444492|    0.824000|    0.011996|
|         789|   -7.069210|   -9.448783|    0.824000|    0.011996|
|         790|   -7.067502|   -9.452957|    0.824000|    0.011996|
|         791|   -7.065888|   -9.457040|    0.824000|    0.011996|
|         792|   -7.064384|   -9.461057|    0.824000|    0.011996|
|         793|   -7.063005|   -9.465031|    0.824000|    0.011996|
|         794|   -7.061764|   -9.468983|    0.824000|    0.011996|
|         795|   -7.060669|   -9.472928|    0.824000|    0.011996|
|         796|   -7.059728|   -9.476878|    0.824000|    0.011996|
|         797|   -7.058944|   -9.480839|    0.824000|    0.011996|
|         798|   -7.058317|   -9.484815|    0.824000|    0.011996|
|         799|   -7.057843|   -9.488804|    0.824000|    0.011996|
|         800|   -7.057514|   -9.492801|    0.824000|    0.011996|
|         801|   -7.057320|   -9.496800|    0.824000|    0.011996|
|         802|   -7.057247|   -9.500792|    0.824000|    0.011996|
|         803|   -7.057275|   -9.504768|    0.824000|    0.011996|
|         804|   -7.057383|   -9.508720|    0.824000|    0.011996|
|         805|   -7.057548|   -9.512642|    0.824000|    0.011996|
|         806|   -7.057742|   -9.516527|    0.824000|    0.011996|
|         807|   -7.057937|   -9.520373|    0.824000|    0.011996|
|         808|   -7.058101|   -9.524180|    0.824000|    0.011996|
|         809|   -7.058206|   -9.527951|    0.824000|    0.011996|
|         810|   -7.058219|   -9.531692|    0.824000|    0.011996|
|         811|   -7.058112|   -9.535411|    0.824000|    0.011996|
|         812|   -7.057856|   -9.539119|    0.824000|    0.011996|
|         813|   -7.057427|   -9.542825|    0.824000|    0.011996|
|         814|   -7.056804|   -9.546543|    0.824000|    0.011996|
|         815|   -7.055970|   -9.550283|    0.823999|    0.011996|
|         816|   -7.054913|   -9.554056|    0.823999|    0.011996|
|         817|   -7.053628|   -9.557870|    0.823999|    0.011996|
|         818|   -7.052113|   -9.561731|    0.823999|    0.011996|
|         819|   -7.050376|   -9.565641|    0.823999|    0.011996|
|         820|   -7.048426|   -9.569598|    0.823999|    0.011996|
|         821|   -7.046282|   -9.573595|    0.823999|    0.011996|
|         822|   -7.043965|   -9.577623|    0.823999|    0.011996|
|         823|   -7.041502|   -9.581664|    0.823999|    0.011996|
|         824|   -7.038922|   -9.585700|    0.823999|    0.011996|
|         825|   -7.036258|   -9.589705|    0.823999|    0.011996|
|         826|   -7.033546|   -9.593651|    0.823999|    0.011996|
|         827|   -7.030820|   -9.597505|    0.823999|    0.011996|
|         828|   -7.028117|   -9.601235|    0.823999|    0.011996|
|         829|   -7.025473|   -9.604804|    0.823999|    0.011996|
|         830|   -7.022922|   -9.608176|    0.823999|    0.011996|
|         831|   -7.020497|   -9.611317|    0.823999|    0.011996|
|         832|   -7.018231|   -9.614195|    0.823999|    0.011996|
|         833|   -7.016151|   -9.616780|    0.823999|    0.011996|
|         834|   -7.014283|   -9.619048|    0.823999|    0.011996|
|         835|   -7.012650|   -9.620981|    0.823999|    0.011996|
|         836|   -7.011272|   -9.622567|    0.823999|    0.011996|
|         837|   -7.010165|   -9.623802|    0.823999|    0.011996|
|         838|   -7.009344|   -9.624687|    0.823999|    0.011996|
|         839|   -7.008817|   -9.625233|    0.823999|    0.011996|
|         840|   -7.008592|   -9.625456|    0.823999|    0.011996|
|         841|   -7.008671|   -9.625381|    0.823999|    0.011996|
|         842|   -7.009055|   -9.625036|    0.823999|    0.011996|
|         843|   -7.009740|   -9.624457|    0.823999|    0.011996|
|         844|   -7.010718|   -9.623681|    0.823999|    0.011996|
|         845|   -7.011982|   -9.622749|    0.823999|    0.011996|
|         846|   -7.013516|   -9.621706|    0.823999|    0.011996|
|         847|   -7.015304|   -9.620595|    0.823999|    0.011996|
|         848|   -7.017327|   -9.619461|    0.823999|    0.011996|
|         849|   -7.019562|   -9.618350|    0.823999|    0.011996|
|         850|   -7.021982|   -9.617303|    0.823999|    0.011995|
|         851|   -7.024559|   -9.616362|    0.823999|    0.011995|
|         852|   -7.027262|   -9.615566|    0.823999|    0.011995|
|         853|   -7.030054|   -9.614952|    0.823999|    0.011995|
|         854|   -7.032902|   -9.614552|    0.823999|    0.011995|
|         855|   -7.035764|   -9.614397|    0.823999|    0.011995|
|         856|   -7.038603|   -9.614512|    0.823999|    0.011995|
|         857|   -7.041376|   -9.614919|    0.823999|    0.011995|
|         858|   -7.044042|   -9.615635|    0.823999|    0.011995|
|         859|   -7.046561|   -9.616674|    0.823999|    0.011995|
|         860|   -7.048892|   -9.618043|    0.823999|    0.011995|
|         861|   -7.050999|   -9.619744|    0.823999|    0.011995|
|         862|   -7.052845|   -9.621776|    0.823999|    0.011995|
|         863|   -7.054401|   -9.624128|    0.823999|    0.011995|
|         864|   -7.055640|   -9.626788|    0.823999|    0.011995|
|         865|   -7.056541|   -9.629733|    0.823999|    0.011995|
|         866|   -7.057089|   -9.632939|    0.823999|    0.011995|
|         867|   -7.057275|   -9.636372|    0.823999|    0.011995|
|         868|   -7.057097|   -9.639994|    0.823999|    0.011995|
|         869|   -7.056561|   -9.643763|    0.823999|    0.011995|
|         870|   -7.055677|   -9.647630|    0.823999|    0.011995|
|         871|   -7.054463|   -9.651543|    0.823999|    0.011995|
|         872|   -7.052942|   -9.655447|    0.823999|    0.011995|
|         873|   -7.051142|   -9.659287|    0.823999|    0.011995|
|         874|   -7.049094|   -9.663006|    0.823999|    0.011995|
|         875|   -7.046834|   -9.666548|    0.823999|    0.011995|
|         876|   -7.044400|   -9.669863|    0.823999|    0.011995|
|         877|   -7.041831|   -9.672904|    0.823999|    0.011995|
|         878|   -7.039166|   -9.675630|    0.823999|    0.011995|
|         879|   -7.036446|   -9.678009|    0.823999|    0.011995|
|         880|   -7.033708|   -9.680017|    0.823999|    0.011995|
|         881|   -7.030993|   -9.681640|    0.824000|    0.011995|
|         882|   -7.028334|   -9.682874|    0.824000|    0.011995|
|         883|   -7.025768|   -9.683724|    0.824000|    0.011995|
|         884|   -7.023325|   -9.684203|    0.824000|    0.011995|
|         885|   -7.021035|   -9.684334|    0.824000|    0.011995|
|         886|   -7.018925|   -9.684144|    0.824000|    0.011995|
|         887|   -7.017020|   -9.683666|    0.824000|    0.011995|
|         888|   -7.015340|   -9.682938|    0.824000|    0.011995|
|         889|   -7.013906|   -9.681998|    0.824000|    0.011995|
|         890|   -7.012733|   -9.680885|    0.824000|    0.011995|
|         891|   -7.011835|   -9.679641|    0.824000|    0.011995|
|         892|   -7.011224|   -9.678301|    0.824000|    0.011995|
|         893|   -7.010908|   -9.676904|    0.824000|    0.011995|
|         894|   -7.010896|   -9.675483|    0.824000|    0.011995|
|         895|   -7.011192|   -9.674068|    0.824000|    0.011995|
|         896|   -7.011797|   -9.672690|    0.824000|    0.011995|
|         897|   -7.012713|   -9.671373|    0.824000|    0.011995|
|         898|   -7.013938|   -9.670141|    0.824000|    0.011995|
|         899|   -7.015467|   -9.669016|    0.824000|    0.011995|
|         900|   -7.017297|   -9.668017|    0.824000|    0.011995|
|         901|   -7.019418|   -9.667161|    0.824000|    0.011996|
|         902|   -7.021820|   -9.666465|    0.824000|    0.011996|
|         903|   -7.024493|   -9.665944|    0.824000|    0.011996|
|         904|   -7.027422|   -9.665611|    0.824000|    0.011996|
|         905|   -7.030591|   -9.665480|    0.824000|    0.011996|
|         906|   -7.033982|   -9.665565|    0.824000|    0.011996|
|         907|   -7.037574|   -9.665877|    0.824000|    0.011996|
|         908|   -7.041345|   -9.666427|    0.824000|    0.011996|
|         909|   -7.045270|   -9.667228|    0.824000|    0.011996|
|         910|   -7.049322|   -9.668288|    0.824000|    0.011996|
|         911|   -7.053471|   -9.669619|    0.824000|    0.011996|
|         912|   -7.057686|   -9.671228|    0.824000|    0.011996|
|         913|   -7.061934|   -9.673125|    0.824000|    0.011996|
|         914|   -7.066180|   -9.675314|    0.824000|    0.011996|
|         915|   -7.070387|   -9.677802|    0.824000|    0.011996|
|         916|   -7.074519|   -9.680591|    0.824000|    0.011996|
|         917|   -7.078536|   -9.683684|    0.824000|    0.011996|
|         918|   -7.082400|   -9.687079|    0.824000|    0.011996|
|         919|   -7.086074|   -9.690773|    0.824000|    0.011996|
[...]
|        5298|   -6.048066|   -7.935338|    0.824239|    0.012000|
|        5299|   -6.054768|   -7.939246|    0.824239|    0.012000|
|        5300|   -6.061039|   -7.943189|    0.824239|    0.012000|
|        5301|   -6.066847|   -7.947183|    0.824240|    0.012000|
|        5302|   -6.072171|   -7.951240|    0.824240|    0.012000|
|        5303|   -6.077003|   -7.955371|    0.824240|    0.012000|
|        5304|   -6.081347|   -7.959582|    0.824240|    0.012000|
|        5305|   -6.085222|   -7.963879|    0.824240|    0.011999|
|        5306|   -6.088654|   -7.968265|    0.824240|    0.011999|
|        5307|   -6.091684|   -7.972741|    0.824240|    0.011999|
|        5308|   -6.094358|   -7.977309|    0.824240|    0.011999|
|        5309|   -6.096729|   -7.981969|    0.824240|    0.011999|
|        5310|   -6.098855|   -7.986722|    0.824240|    0.011999|
|        5311|   -6.100796|   -7.991569|    0.824240|    0.011999|
|        5312|   -6.102611|   -7.996510|    0.824240|    0.011999|
|        5313|   -6.104359|   -8.001548|    0.824241|    0.011999|
|        5314|   -6.106097|   -8.006685|    0.824241|    0.011999|
|        5315|   -6.107876|   -8.011923|    0.824241|    0.011999|
|        5316|   -6.109745|   -8.017267|    0.824241|    0.011999|
|        5317|   -6.111746|   -8.022720|    0.824241|    0.011999|
|        5318|   -6.113914|   -8.028287|    0.824241|    0.011999|
|        5319|   -6.116278|   -8.033972|    0.824241|    0.011999|
|        5320|   -6.118863|   -8.039780|    0.824241|    0.011999|
|        5321|   -6.121685|   -8.045714|    0.824242|    0.012000|
|        5322|   -6.124752|   -8.051776|    0.824242|    0.012000|
|        5323|   -6.128068|   -8.057970|    0.824242|    0.012000|
|        5324|   -6.131629|   -8.064295|    0.824242|    0.012000|
|        5325|   -6.135424|   -8.070752|    0.824242|    0.012000|
|        5326|   -6.139436|   -8.077338|    0.824242|    0.012000|
|        5327|   -6.143644|   -8.084049|    0.824242|    0.012000|
|        5328|   -6.148018|   -8.090881|    0.824243|    0.012000|
|        5329|   -6.152525|   -8.097826|    0.824243|    0.012000|
|        5330|   -6.157128|   -8.104877|    0.824243|    0.012000|
|        5331|   -6.161785|   -8.112026|    0.824243|    0.012000|
|        5332|   -6.166452|   -8.119261|    0.824243|    0.012000|
|        5333|   -6.171084|   -8.126575|    0.824243|    0.012000|
|        5334|   -6.175636|   -8.133955|    0.824243|    0.012001|
|        5335|   -6.180062|   -8.141391|    0.824244|    0.012001|
|        5336|   -6.184322|   -8.148873|    0.824244|    0.012001|
|        5337|   -6.188377|   -8.156391|    0.824244|    0.012001|
|        5338|   -6.192196|   -8.163936|    0.824244|    0.012001|
|        5339|   -6.195754|   -8.171500|    0.824244|    0.012001|
|        5340|   -6.199032|   -8.179076|    0.824244|    0.012001|
|        5341|   -6.202022|   -8.186658|    0.824244|    0.012001|
|        5342|   -6.204724|   -8.194242|    0.824244|    0.012001|
|        5343|   -6.207146|   -8.201828|    0.824245|    0.012001|
|        5344|   -6.209304|   -8.209414|    0.824245|    0.012001|
|        5345|   -6.211224|   -8.217000|    0.824245|    0.012001|
|        5346|   -6.212938|   -8.224584|    0.824245|    0.012001|
|        5347|   -6.214482|   -8.232168|    0.824245|    0.012001|
|        5348|   -6.215899|   -8.239750|    0.824245|    0.012002|
|        5349|   -6.217233|   -8.247331|    0.824245|    0.012002|
|        5350|   -6.218530|   -8.254913|    0.824245|    0.012002|
|        5351|   -6.219834|   -8.262499|    0.824245|    0.012002|
|        5352|   -6.221193|   -8.270094|    0.824245|    0.012002|
|        5353|   -6.222648|   -8.277702|    0.824245|    0.012002|
|        5354|   -6.224241|   -8.285324|    0.824245|    0.012002|
|        5355|   -6.226008|   -8.292966|    0.824246|    0.012002|
|        5356|   -6.227983|   -8.300629|    0.824246|    0.012002|
|        5357|   -6.230196|   -8.308318|    0.824246|    0.012002|
|        5358|   -6.232671|   -8.316029|    0.824246|    0.012002|
|        5359|   -6.235427|   -8.323763|    0.824246|    0.012002|
|        5360|   -6.238481|   -8.331515|    0.824246|    0.012002|
|        5361|   -6.241843|   -8.339283|    0.824246|    0.012002|
|        5362|   -6.245517|   -8.347063|    0.824246|    0.012002|
|        5363|   -6.249504|   -8.354850|    0.824246|    0.012002|
|        5364|   -6.253799|   -8.362638|    0.824246|    0.012002|
|        5365|   -6.258392|   -8.370420|    0.824246|    0.012002|
|        5366|   -6.263268|   -8.378188|    0.824246|    0.012002|
|        5367|   -6.268408|   -8.385932|    0.824246|    0.012002|
|        5368|   -6.273787|   -8.393639|    0.824246|    0.012002|
|        5369|   -6.279375|   -8.401302|    0.824246|    0.012002|
|        5370|   -6.285139|   -8.408914|    0.824246|    0.012002|
|        5371|   -6.291041|   -8.416485|    0.824246|    0.012002|
|        5372|   -6.297040|   -8.423998|    0.824246|    0.012002|
|        5373|   -6.303090|   -8.431433|    0.824245|    0.012002|
|        5374|   -6.309144|   -8.438778|    0.824245|    0.012002|
|        5375|   -6.315154|   -8.446021|    0.824245|    0.012002|
|        5376|   -6.321070|   -8.453152|    0.824245|    0.012002|
|        5377|   -6.326844|   -8.460164|    0.824245|    0.012002|
|        5378|   -6.332429|   -8.467051|    0.824245|    0.012002|
|        5379|   -6.337779|   -8.473811|    0.824245|    0.012001|
|        5380|   -6.342856|   -8.480439|    0.824245|    0.012001|
|        5381|   -6.347623|   -8.486938|    0.824245|    0.012001|
|        5382|   -6.352051|   -8.493307|    0.824245|    0.012001|
|        5383|   -6.356118|   -8.499549|    0.824245|    0.012001|
|        5384|   -6.359809|   -8.505663|    0.824245|    0.012001|
|        5385|   -6.363115|   -8.511654|    0.824245|    0.012001|
|        5386|   -6.366037|   -8.517527|    0.824245|    0.012001|
|        5387|   -6.368580|   -8.523283|    0.824245|    0.012001|
|        5388|   -6.370758|   -8.528924|    0.824245|    0.012001|
|        5389|   -6.372587|   -8.534456|    0.824245|    0.012001|
|        5390|   -6.374090|   -8.539886|    0.824245|    0.012001|
|        5391|   -6.375292|   -8.545215|    0.824245|    0.012000|
|        5392|   -6.376219|   -8.550446|    0.824245|    0.012000|
|        5393|   -6.376899|   -8.555574|    0.824246|    0.012000|
|        5394|   -6.377359|   -8.560595|    0.824246|    0.012000|
|        5395|   -6.377625|   -8.565501|    0.824246|    0.012000|
|        5396|   -6.377722|   -8.570282|    0.824246|    0.012000|
|        5397|   -6.377673|   -8.574926|    0.824246|    0.012000|
|        5398|   -6.377498|   -8.579419|    0.824246|    0.012000|
|        5399|   -6.377214|   -8.583748|    0.824246|    0.012000|
|        5400|   -6.376835|   -8.587899|    0.824246|    0.012000|
|        5401|   -6.376375|   -8.591856|    0.824246|    0.011999|
|        5402|   -6.375843|   -8.595610|    0.824246|    0.011999|
|        5403|   -6.375248|   -8.599148|    0.824247|    0.011999|
|        5404|   -6.374595|   -8.602465|    0.824247|    0.011999|
|        5405|   -6.373889|   -8.605556|    0.824247|    0.011999|
|        5406|   -6.373134|   -8.608422|    0.824247|    0.011999|
|        5407|   -6.372332|   -8.611065|    0.824247|    0.011999|
|        5408|   -6.371485|   -8.613497|    0.824247|    0.011999|
|        5409|   -6.370595|   -8.615748|    0.824247|    0.011999|
|        5410|   -6.369665|   -8.617823|    0.824248|    0.011999|
|        5411|   -6.368695|   -8.619734|    0.824248|    0.011998|
|        5412|   -6.367690|   -8.621494|    0.824248|    0.011998|
|        5413|   -6.366652|   -8.623118|    0.824248|    0.011998|
|        5414|   -6.365583|   -8.624625|    0.824248|    0.011998|
|        5415|   -6.364490|   -8.626030|    0.824248|    0.011998|
|        5416|   -6.363375|   -8.627352|    0.824248|    0.011998|
|        5417|   -6.362246|   -8.628604|    0.824248|    0.011998|
|        5418|   -6.361107|   -8.629802|    0.824248|    0.011998|
|        5419|   -6.359966|   -8.630956|    0.824249|    0.011998|
|        5420|   -6.358831|   -8.632076|    0.824249|    0.011998|
|        5421|   -6.357710|   -8.633167|    0.824249|    0.011998|
|        5422|   -6.356613|   -8.634239|    0.824249|    0.011998|
|        5423|   -6.355549|   -8.635300|    0.824249|    0.011998|
|        5424|   -6.354529|   -8.636350|    0.824249|    0.011998|
|        5425|   -6.353564|   -8.637385|    0.824249|    0.011998|
|        5426|   -6.352667|   -8.638399|    0.824249|    0.011998|
|        5427|   -6.351852|   -8.639383|    0.824249|    0.011998|
|        5428|   -6.351131|   -8.640330|    0.824249|    0.011997|
|        5429|   -6.350518|   -8.641232|    0.824249|    0.011997|
|        5430|   -6.350029|   -8.642081|    0.824250|    0.011997|
|        5431|   -6.349681|   -8.642869|    0.824250|    0.011997|
|        5432|   -6.349488|   -8.643587|    0.824250|    0.011997|
|        5433|   -6.349465|   -8.644229|    0.824250|    0.011997|
|        5434|   -6.349628|   -8.644792|    0.824250|    0.011997|
|        5435|   -6.349992|   -8.645276|    0.824250|    0.011997|
|        5436|   -6.350572|   -8.645681|    0.824250|    0.011998|
|        5437|   -6.351383|   -8.646012|    0.824250|    0.011998|
|        5438|   -6.352436|   -8.646275|    0.824250|    0.011998|
|        5439|   -6.353744|   -8.646478|    0.824250|    0.011998|
|        5440|   -6.355318|   -8.646632|    0.824250|    0.011998|
|        5441|   -6.357165|   -8.646747|    0.824250|    0.011998|
|        5442|   -6.359294|   -8.646833|    0.824250|    0.011998|
|        5443|   -6.361708|   -8.646903|    0.824250|    0.011998|
|        5444|   -6.364410|   -8.646967|    0.824250|    0.011998|
|        5445|   -6.367400|   -8.647035|    0.824250|    0.011998|
|        5446|   -6.370674|   -8.647116|    0.824250|    0.011998|
|        5447|   -6.374227|   -8.647221|    0.824250|    0.011998|
|        5448|   -6.378050|   -8.647358|    0.824250|    0.011998|
|        5449|   -6.382131|   -8.647532|    0.824250|    0.011998|
|        5450|   -6.386452|   -8.647746|    0.824250|    0.011998|
|        5451|   -6.390995|   -8.648003|    0.824250|    0.011998|
|        5452|   -6.395737|   -8.648305|    0.824250|    0.011998|
|        5453|   -6.400651|   -8.648651|    0.824250|    0.011998|
|        5454|   -6.405706|   -8.649041|    0.824250|    0.011998|
|        5455|   -6.410868|   -8.649473|    0.824250|    0.011999|
|        5456|   -6.416101|   -8.649944|    0.824250|    0.011999|
|        5457|   -6.421363|   -8.650449|    0.824250|    0.011999|
|        5458|   -6.426613|   -8.650985|    0.824250|    0.011999|
|        5459|   -6.431806|   -8.651546|    0.824250|    0.011999|
|        5460|   -6.436895|   -8.652126|    0.824250|    0.011999|
|        5461|   -6.441834|   -8.652720|    0.824249|    0.011999|
|        5462|   -6.446578|   -8.653323|    0.824249|    0.011999|
|        5463|   -6.451083|   -8.653931|    0.824249|    0.011999|
|        5464|   -6.455305|   -8.654539|    0.824249|    0.011999|
|        5465|   -6.459207|   -8.655143|    0.824249|    0.011999|
|        5466|   -6.462756|   -8.655740|    0.824249|    0.011999|
|        5467|   -6.465924|   -8.656325|    0.824249|    0.012000|
|        5468|   -6.468688|   -8.656896|    0.824249|    0.012000|
|        5469|   -6.471035|   -8.657452|    0.824249|    0.012000|
|        5470|   -6.472957|   -8.657990|    0.824249|    0.012000|
|        5471|   -6.474455|   -8.658511|    0.824248|    0.012000|
|        5472|   -6.475537|   -8.659012|    0.824248|    0.012000|
|        5473|   -6.476217|   -8.659494|    0.824248|    0.012000|
|        5474|   -6.476516|   -8.659958|    0.824248|    0.012000|
|        5475|   -6.476462|   -8.660403|    0.824248|    0.012000|
|        5476|   -6.476085|   -8.660831|    0.824248|    0.012000|
|        5477|   -6.475421|   -8.661242|    0.824248|    0.012000|
|        5478|   -6.474507|   -8.661637|    0.824247|    0.012000|
|        5479|   -6.473381|   -8.662017|    0.824247|    0.012000|
|        5480|   -6.472085|   -8.662383|    0.824247|    0.012000|
|        5481|   -6.470657|   -8.662737|    0.824247|    0.012000|
|        5482|   -6.469137|   -8.663079|    0.824247|    0.012000|
|        5483|   -6.467561|   -8.663412|    0.824247|    0.012000|
|        5484|   -6.465966|   -8.663736|    0.824247|    0.012000|
|        5485|   -6.464385|   -8.664054|    0.824246|    0.012001|
|        5486|   -6.462848|   -8.664368|    0.824246|    0.012001|
|        5487|   -6.461384|   -8.664680|    0.824246|    0.012001|
|        5488|   -6.460018|   -8.664994|    0.824246|    0.012001|
|        5489|   -6.458771|   -8.665312|    0.824246|    0.012001|
|        5490|   -6.457665|   -8.665639|    0.824246|    0.012001|
|        5491|   -6.456716|   -8.665978|    0.824245|    0.012001|
|        5492|   -6.455938|   -8.666335|    0.824245|    0.012001|
|        5493|   -6.455344|   -8.666714|    0.824245|    0.012001|
|        5494|   -6.454944|   -8.667121|    0.824245|    0.012001|
|        5495|   -6.454745|   -8.667561|    0.824245|    0.012000|
|        5496|   -6.454753|   -8.668041|    0.824245|    0.012000|
|        5497|   -6.454973|   -8.668567|    0.824245|    0.012000|
|        5498|   -6.455407|   -8.669145|    0.824245|    0.012000|
|        5499|   -6.456057|   -8.669782|    0.824245|    0.011986|
+-----------------------------------------------------------------------+
|Fixed CL Mode (Finite Difference)       |Value                         |
+-----------------------------------------------------------------------+
|Delta CL / Delta AoA                    |0.244232                      |
|Delta CD / Delta CL                     |0.0196942                     |
|Delta CMz / Delta CL                    |0.00874332                    |
+-----------------------------------------------------------------------+
Writing Flow Meta-Data file: flow.meta

----------------------------- Solver Exit -------------------------------

Maximum number of iterations reached (ITER = 5500) before convergence.
+-----------------------------------------------------------------------+
|      Convergence Field     |     Value    |   Criterion  |  Converged |
+-----------------------------------------------------------------------+
|                    rms[Rho]|      -6.45606|         < -12|          No|
+-----------------------------------------------------------------------+
-------------------------------------------------------------------------

--------------------------- Finalizing Solver ---------------------------
Deleted CNumerics container.
Deleted CIntegration container.
Deleted CSolver container.
Deleted CIteration container.
Deleted CInterface container.
Deleted CGeometry container.
Deleted CFreeFormDefBox class.
Deleted CSurfaceMovement class.
Deleted CVolumetricMovement class.
Deleted CConfig container.
Deleted nInst container.
Deleted COutput class.
-------------------------------------------------------------------------

------------------------- Exit Success (SU2_CFD) ------------------------


-------------------------------------------------------------------------
|    ___ _   _ ___                                                      |
|   / __| | | |_  )   Release 8.0.0 "Harrier"                           |
|   \__ \ |_| |/ /                                                      |
|   |___/\___//___|   Suite (Solution Exporting Code)                   |
|                                                                       |
-------------------------------------------------------------------------
| SU2 Project Website: https://su2code.github.io                        |
|                                                                       |
| The SU2 Project is maintained by the SU2 Foundation                   |
| (http://su2foundation.org)                                            |
-------------------------------------------------------------------------
| Copyright 2012-2023, SU2 Contributors                                 |
|                                                                       |
| SU2 is free software; you can redistribute it and/or                  |
| modify it under the terms of the GNU Lesser General Public            |
| License as published by the Free Software Foundation; either          |
| version 2.1 of the License, or (at your option) any later version.    |
|                                                                       |
| SU2 is distributed in the hope that it will be useful,                |
| but WITHOUT ANY WARRANTY; without even the implied warranty of        |
| MERCHANTABILITY or FITNESS FOR A PARTICULAR PURPOSE. See the GNU      |
| Lesser General Public License for more details.                       |
|                                                                       |
| You should have received a copy of the GNU Lesser General Public      |
| License along with SU2. If not, see <http://www.gnu.org/licenses/>.   |
-------------------------------------------------------------------------

----------------- Physical Case Definition ( Zone 0 ) -------------------
Input mesh file name: mesh_RAE2822_turb_deform.su2

-------------------- Output Information ( Zone 0 ) ----------------------
The tabular file format is CSV (.csv).
Flow variables file name: flow.

------------- Config File Boundary Information ( Zone 0 ) ---------------
+-----------------------------------------------------------------------+
|                        Marker Type|                        Marker Name|
+-----------------------------------------------------------------------+
|                          Far-field|                           FARFIELD|
+-----------------------------------------------------------------------+
|                     Heat flux wall|                            AIRFOIL|
+-----------------------------------------------------------------------+
Two dimensional problem.
13937 grid points before partitioning.
22842 volume elements before partitioning.
2 surface markers.
192 boundary elements in index 0 (Marker = AIRFOIL).
40 boundary elements in index 1 (Marker = FARFIELD).
Executing the partitioning functions.
Building the graph adjacency structure.
Calling ParMETIS... graph partitioning complete (831 edge cuts).
Distributing ParMETIS coloring.
Rebalancing vertices.
Rebalancing volume element connectivity.
Rebalancing markers and surface elements.
14875 vertices including ghost points. 
23674 interior elements including halo cells. 
18780 triangles.
4894 quadrilaterals.
Establishing MPI communication patterns.
Identify vertices.
Storing a mapping from global to local point index.

------------------------- Solution Postprocessing -----------------------
Reading and storing the solution from restart_flow.
Volume output fields: COORDINATES, SOLUTION
  Info: Ignoring the following screen output fields:
  RMS_DENSITY, RMS_NU_TILDE, LIFT, DRAG
Screen output fields: INNER_ITER
  Info: Ignoring the following history output groups:
  RMS_RES, AERO_COEFF
History output group(s): ITER
Warning: No (valid) fields chosen for convergence monitoring. Convergence monitoring inactive.
Warning: No (valid) fields chosen for time convergence monitoring. Time convergence monitoring inactive.
|Paraview                           |flow.vtu                           |
|Paraview surface                   |surface_flow.vtu                   |
|CSV file                           |surface_flow.csv                   |

------------------------- Finalize Solver -------------------------
Deleted CGeometry container.
Deleted CSolver class.
Deleted CConfig container.
Deleted COutput class.

Completed in 0.014564 seconds on 6 cores.

------------------------- Exit Success (SU2_SOL) ------------------------

