
-------------------------------------------------------------------------
|    ___ _   _ ___                                                      |
|   / __| | | |_  )   Release 8.0.0 "Harrier"                           |
|   \__ \ |_| |/ /                                                      |
|   |___/\___//___|   Suite (Computational Fluid Dynamics Code)         |
|                                                                       |
-------------------------------------------------------------------------
| SU2 Project Website: https://su2code.github.io                        |
|                                                                       |
| The SU2 Project is maintained by the SU2 Foundation                   |
| (http://su2foundation.org)                                            |
-------------------------------------------------------------------------
| Copyright 2012-2023, SU2 Contributors                                 |
|                                                                       |
| SU2 is free software; you can redistribute it and/or                  |
| modify it under the terms of the GNU Lesser General Public            |
| License as published by the Free Software Foundation; either          |
| version 2.1 of the License, or (at your option) any later version.    |
|                                                                       |
| SU2 is distributed in the hope that it will be useful,                |
| but WITHOUT ANY WARRANTY; without even the implied warranty of        |
| MERCHANTABILITY or FITNESS FOR A PARTICULAR PURPOSE. See the GNU      |
| Lesser General Public License for more details.                       |
|                                                                       |
| You should have received a copy of the GNU Lesser General Public      |
| License along with SU2. If not, see <http://www.gnu.org/licenses/>.   |
-------------------------------------------------------------------------

Parsing config file for zone 0

----------------- Physical Case Definition ( Zone 0 ) -------------------
Compressible RANS equations.
Turbulence model: Spalart-Allmaras-noft2
Hybrid RANS/LES: No Hybrid RANS/LES
Mach number: 0.734.
Angle of attack (AoA): 2.31 deg, and angle of sideslip (AoS): 0 deg.
Reynolds number: 6.5e+06. Reference length 1.
Fixed CL mode, target value: 0.824.
Reading and writing binary SU2 native restart files.
Read flow solution from: solution_flow.dat.
Dimensional simulation.
The reference area is 1 m^2.
The semi-span will be computed using the max y(3D) value.
The reference length is 1 m.
Reference origin for moment evaluation is (0.25, 0, 0).
Surface(s) where the force coefficients are evaluated: AIRFOIL.

Surface(s) plotted in the output file: AIRFOIL.
Surface(s) affected by the design variables: AIRFOIL.
Input mesh file name: mesh_RAE2822_turb_deform.su2

--------------- Space Numerical Integration ( Zone 0 ) ------------------
Jameson-Schmidt-Turkel scheme (2nd order in space) for the flow inviscid terms.
JST viscous coefficients (2nd & 4th): 0.5, 0.02.
The method includes a grid stretching correction (p = 0.3).
Scalar upwind solver for the turbulence model.
First order integration in space.
Average of gradients with correction (viscous flow terms).
Average of gradients with correction (viscous turbulence terms).
Gradient for viscous and source terms: inverse-distance weighted Least-Squares.

--------------- Time Numerical Integration  ( Zone 0 ) ------------------
Local time stepping (steady state simulation).
Euler implicit method for the flow equations.
FGMRES is used for solving the linear system.
Using a ILU(0) preconditioning.
Convergence criteria of the linear solver: 1e-06.
Max number of linear iterations: 10.
No CFL adaptation.
Courant-Friedrichs-Lewy number:       10
Euler implicit time integration for the turbulence model.

------------------ Convergence Criteria  ( Zone 0 ) ---------------------
Maximum number of solver subiterations: 5500.
Begin convergence monitoring at iteration 10.
Residual minimum value: 1e-12.
Cauchy series min. value: 1e-06.
Number of Cauchy elements: 100.
Begin windowed time average at iteration 0.

-------------------- Output Information ( Zone 0 ) ----------------------
File writing frequency: 
+------------------------------------+
|                     File| Frequency|
+------------------------------------+
|                  RESTART|     10000|
|                 PARAVIEW|     10000|
|         SURFACE_PARAVIEW|     10000|
|              SURFACE_CSV|     10000|
+------------------------------------+
Writing the convergence history file every 1 inner iterations.
Writing the screen convergence history every 1 inner iterations.
The tabular file format is CSV (.csv).
Convergence history file name: history_direct.
Forces breakdown file name: forces_breakdown.dat.
Surface file name: surface_flow.
Volume file name: flow.
Restart file name: restart_flow.dat.

------------- Config File Boundary Information ( Zone 0 ) ---------------
+-----------------------------------------------------------------------+
|                        Marker Type|                        Marker Name|
+-----------------------------------------------------------------------+
|                          Far-field|                           FARFIELD|
+-----------------------------------------------------------------------+
|                     Heat flux wall|                            AIRFOIL|
+-----------------------------------------------------------------------+

-------------------- Output Preprocessing ( Zone 0 ) --------------------

WARNING: SURFACE_PRESSURE_DROP can only be computed for at least 2 surfaces (outlet, inlet, ...)

Screen output fields: INNER_ITER, RMS_DENSITY, RMS_NU_TILDE, LIFT, DRAG
History output group(s): ITER, RMS_RES, AERO_COEFF
Convergence field(s): RMS_DENSITY
Warning: No (valid) fields chosen for time convergence monitoring. Time convergence monitoring inactive.
Volume output fields: COORDINATES, SOLUTION, PRIMITIVE

------------------- Geometry Preprocessing ( Zone 0 ) -------------------
Two dimensional problem.
13937 grid points before partitioning.
22842 volume elements before partitioning.
2 surface markers.
192 boundary elements in index 0 (Marker = AIRFOIL).
40 boundary elements in index 1 (Marker = FARFIELD).
Executing the partitioning functions.
Building the graph adjacency structure.
Calling ParMETIS... graph partitioning complete (831 edge cuts).
Distributing ParMETIS coloring.
Rebalancing vertices.
Rebalancing volume element connectivity.
Rebalancing markers and surface elements.
14875 vertices including ghost points. 
23674 interior elements including halo cells. 
18780 triangles.
4894 quadrilaterals.
Establishing MPI communication patterns.
Setting point connectivity.
Renumbering points (Reverse Cuthill McKee Ordering).
Recomputing point connectivity.
Setting element connectivity.
Checking the numerical grid orientation.
All volume elements are correctly orientend.
All surface elements are correctly orientend.
Identifying edges and vertices.
Setting the control volume structure.
Area of the computational grid: 32209.9.
Searching for the closest normal neighbors to the surfaces.
Storing a mapping from global to local point index.
Compute the surface curvature.
Max K: 162.42. Mean K: 7.44391. Standard deviation K: 22.176.
Checking for periodicity.
Computing mesh quality statistics for the dual control volumes.
+--------------------------------------------------------------+
|           Mesh Quality Metric|        Minimum|        Maximum|
+--------------------------------------------------------------+
|    Orthogonality Angle (deg.)|        75.2846|        89.9995|
|     CV Face Area Aspect Ratio|        1.00105|        3358.45|
|           CV Sub-Volume Ratio|        1.00063|        1213.02|
+--------------------------------------------------------------+
Finding max control volume width.
Communicating number of neighbors.
Wetted area = 2.02273 m.
Area projection in the x-plane = 0.124513 m, y-plane = 0.995873 m.
Max. coordinate in the x-direction = 1 m, y-direction = 0.0630673 m.
Min. coordinate in the x-direction = 0 m, y-direction = -0.0596021 m.
Computing wall distances.

-------------------- Solver Preprocessing ( Zone 0 ) --------------------
WARNING: AoA in the solution file (2.7845 deg.) +
         AoA offset in mesh file (0 deg.) = 2.7845 deg.
WARNING: SU2 will use the dCD/dCL provided in the direct solution file: 0.0193608.
WARNING: SU2 will use the dCMz/dCL provided in the direct solution file: 0.00352227.
Viscous flow: Computing pressure using the ideal gas law
based on the free-stream temperature and a density computed
from the Reynolds number.
Force coefficients computed using free-stream values.

-- Models:
+------------------------------------------------------------------------------+
|          Viscosity Model|        Conductivity Model|              Fluid Model|
+------------------------------------------------------------------------------+
|               SUTHERLAND|          CONSTANT_PRANDTL|             STANDARD_AIR|
+------------------------------------------------------------------------------+
-- Fluid properties:
+------------------------------------------------------------------------------+
|                  Name|    Dim. value|    Ref. value|      Unit|Non-dim. value|
+------------------------------------------------------------------------------+
|        Ref. Viscosity|     1.716e-05|             1|   N.s/m^2|     1.716e-05|
|      Sutherland Temp.|        273.15|             1|         K|        273.15|
|     Sutherland Const.|         110.4|             1|         K|         110.4|
+------------------------------------------------------------------------------+
|        Prandtl (Lam.)|             -|             -|         -|          0.71|
|       Prandtl (Turb.)|             -|             -|         -|           0.9|
+------------------------------------------------------------------------------+
|          Gas Constant|       287.058|             1|  N.m/kg.K|       287.058|
|      Spec. Heat Ratio|             -|             -|         -|           1.4|
+------------------------------------------------------------------------------+
-- Initial and free-stream conditions:
+------------------------------------------------------------------------------+
|                  Name|    Dim. value|    Ref. value|      Unit|Non-dim. value|
+------------------------------------------------------------------------------+
|       Static Pressure|         38515|             1|        Pa|         38515|
|               Density|      0.465631|             1|    kg/m^3|      0.465631|
|           Temperature|        288.15|             1|         K|        288.15|
|          Total Energy|        237984|             1|   m^2/s^2|        237984|
|            Velocity-X|       249.483|             1|       m/s|       249.483|
|            Velocity-Y|       12.1341|             1|       m/s|       12.1341|
|    Velocity Magnitude|       249.778|             1|       m/s|       249.778|
+------------------------------------------------------------------------------+
|             Viscosity|    1.7893e-05|             1|   N.s/m^2|    1.7893e-05|
|          Conductivity|             -|             1|   W/m^2.K|             -|
|     Turb. Kin. Energy|       233.959|             1|   m^2/s^2|       233.959|
|     Spec. Dissipation|        608834|             1|       1/s|        608834|
+------------------------------------------------------------------------------+
|           Mach Number|             -|             -|         -|         0.734|
|       Reynolds Number|             -|             -|         -|       6.5e+06|
+------------------------------------------------------------------------------+
Initialize Jacobian structure (Navier-Stokes). MG level: 0.
Initialize Jacobian structure (SA model).

------------------- Numerics Preprocessing ( Zone 0 ) -------------------

----------------- Integration Preprocessing ( Zone 0 ) ------------------

------------------- Iteration Preprocessing ( Zone 0 ) ------------------
Euler/Navier-Stokes/RANS fluid iteration.

------------------------------ Begin Solver -----------------------------

Simulation Run using the Single-zone Driver
WARNING: SU2 was not compiled for an AVX-capable architecture. Performance could be better,
         see https://su2code.github.io/docs_v7/Build-SU2-Linux-MacOS/#compiler-optimizations
+----------------------------------------------------------------+
|  Inner_Iter|    rms[Rho]|     rms[nu]|          CL|          CD|
+----------------------------------------------------------------+
|           0|   -4.126744|   -5.348342|    0.824347|    0.011777|
|           1|   -4.183915|   -5.450315|    0.824506|    0.011746|
|           2|   -4.247656|   -5.565466|    0.824526|    0.011731|
|           3|   -4.302929|   -5.689525|    0.824462|    0.011725|
|           4|   -4.347753|   -5.817609|    0.824367|    0.011722|
|           5|   -4.379791|   -5.935018|    0.824282|    0.011721|
|           6|   -4.397754|   -6.009306|    0.824227|    0.011721|
|           7|   -4.404029|   -6.019904|    0.824208|    0.011724|
|           8|   -4.402536|   -5.992759|    0.824222|    0.011732|
|           9|   -4.395871|   -5.962943|    0.824261|    0.011746|
|          10|   -4.385225|   -5.945712|    0.824315|    0.011766|
|          11|   -4.371745|   -5.943687|    0.824378|    0.011791|
|          12|   -4.357145|   -5.953504|    0.824444|    0.011821|
|          13|   -4.343284|   -5.968076|    0.824504|    0.011855|
|          14|   -4.331565|   -5.977308|    0.824555|    0.011891|
|          15|   -4.322667|   -5.971190|    0.824591|    0.011928|
|          16|   -4.316611|   -5.945990|    0.824608|    0.011966|
|          17|   -4.312931|   -5.907163|    0.824605|    0.012002|
|          18|   -4.310890|   -5.865507|    0.824581|    0.012036|
|          19|   -4.309693|   -5.830709|    0.824539|    0.012068|
|          20|   -4.308690|   -5.807064|    0.824482|    0.012096|
|          21|   -4.307532|   -5.795487|    0.824414|    0.012120|
|          22|   -4.306214|   -5.795529|    0.824340|    0.012142|
|          23|   -4.304988|   -5.805860|    0.824265|    0.012160|
|          24|   -4.304208|   -5.824189|    0.824194|    0.012176|
|          25|   -4.304166|   -5.847164|    0.824129|    0.012189|
|          26|   -4.304995|   -5.870522|    0.824074|    0.012200|
|          27|   -4.306644|   -5.889829|    0.824030|    0.012210|
|          28|   -4.308911|   -5.902138|    0.823996|    0.012219|
|          29|   -4.311511|   -5.907104|    0.823973|    0.012228|
|          30|   -4.314149|   -5.906919|    0.823958|    0.012236|
|          31|   -4.316583|   -5.904901|    0.823950|    0.012243|
|          32|   -4.318656|   -5.904030|    0.823946|    0.012251|
|          33|   -4.320303|   -5.906332|    0.823943|    0.012258|
|          34|   -4.321531|   -5.912782|    0.823940|    0.012266|
|          35|   -4.322397|   -5.923436|    0.823935|    0.012274|
|          36|   -4.322977|   -5.937600|    0.823925|    0.012281|
|          37|   -4.323345|   -5.953830|    0.823909|    0.012289|
|          38|   -4.323563|   -5.969820|    0.823886|    0.012297|
|          39|   -4.323678|   -5.984201|    0.823856|    0.012306|
|          40|   -4.323728|   -6.003027|    0.823819|    0.012314|
|          41|   -4.323741|   -6.024073|    0.823774|    0.012322|
|          42|   -4.323743|   -6.039840|    0.823722|    0.012330|
|          43|   -4.323756|   -6.050808|    0.823663|    0.012338|
|          44|   -4.323791|   -6.058066|    0.823599|    0.012345|
|          45|   -4.323847|   -6.062326|    0.823531|    0.012351|
|          46|   -4.323907|   -6.064203|    0.823458|    0.012357|
|          47|   -4.323933|   -6.064294|    0.823383|    0.012362|
|          48|   -4.323875|   -6.063138|    0.823306|    0.012366|
|          49|   -4.323675|   -6.061215|    0.823228|    0.012368|
|          50|   -4.323275|   -6.058954|    0.823150|    0.012369|
|          51|   -4.322627|   -6.056737|    0.823074|    0.012369|
|          52|   -4.321705|   -6.054871|    0.823000|    0.012367|
|          53|   -4.320509|   -6.053609|    0.822928|    0.012363|
|          54|   -4.319064|   -6.053147|    0.822859|    0.012359|
|          55|   -4.317419|   -6.053580|    0.822794|    0.012352|
|          56|   -4.315638|   -6.054954|    0.822733|    0.012345|
|          57|   -4.313790|   -6.057267|    0.822676|    0.012336|
|          58|   -4.311940|   -6.060452|    0.822623|    0.012326|
|          59|   -4.310138|   -6.064431|    0.822575|    0.012316|
|          60|   -4.308423|   -6.069095|    0.822531|    0.012304|
|          61|   -4.306812|   -6.074352|    0.822490|    0.012291|
|          62|   -4.305308|   -6.080081|    0.822454|    0.012278|
|          63|   -4.303905|   -6.086157|    0.822421|    0.012264|
|          64|   -4.302591|   -6.092594|    0.822392|    0.012250|
|          65|   -4.301358|   -6.099174|    0.822366|    0.012236|
|          66|   -4.300199|   -6.105816|    0.822344|    0.012221|
|          67|   -4.299117|   -6.112463|    0.822324|    0.012206|
|          68|   -4.298122|   -6.119059|    0.822306|    0.012190|
|          69|   -4.297228|   -6.125558|    0.822292|    0.012175|
|          70|   -4.296451|   -6.131933|    0.822279|    0.012160|
|          71|   -4.295806|   -6.138167|    0.822269|    0.012145|
|          72|   -4.295306|   -6.144248|    0.822261|    0.012130|
|          73|   -4.294957|   -6.150197|    0.822254|    0.012115|
|          74|   -4.294760|   -6.155989|    0.822249|    0.012100|
|          75|   -4.294714|   -6.161612|    0.822246|    0.012086|
|          76|   -4.294814|   -6.167072|    0.822244|    0.012072|
|          77|   -4.295054|   -6.172358|    0.822243|    0.012058|
|          78|   -4.295433|   -6.177446|    0.822243|    0.012044|
|          79|   -4.295949|   -6.182317|    0.822244|    0.012031|
|          80|   -4.296604|   -6.186948|    0.822245|    0.012018|
|          81|   -4.297399|   -6.191314|    0.822247|    0.012005|
|          82|   -4.298333|   -6.195393|    0.822248|    0.011992|
|          83|   -4.299404|   -6.199180|    0.822250|    0.011980|
|          84|   -4.300601|   -6.202670|    0.822251|    0.011968|
|          85|   -4.301907|   -6.205872|    0.822252|    0.011956|
|          86|   -4.303296|   -6.208815|    0.822253|    0.011945|
|          87|   -4.304735|   -6.211544|    0.822253|    0.011933|
|          88|   -4.306185|   -6.214095|    0.822253|    0.011922|
|          89|   -4.307606|   -6.216515|    0.822252|    0.011911|
|          90|   -4.308959|   -6.218851|    0.822251|    0.011900|
|          91|   -4.310209|   -6.221135|    0.822250|    0.011889|
|          92|   -4.311331|   -6.223407|    0.822249|    0.011879|
|          93|   -4.312312|   -6.225711|    0.822248|    0.011869|
|          94|   -4.313152|   -6.228094|    0.822247|    0.011859|
|          95|   -4.313867|   -6.230588|    0.822247|    0.011849|
|          96|   -4.314484|   -6.233228|    0.822248|    0.011839|
|          97|   -4.315042|   -6.236053|    0.822249|    0.011830|
|          98|   -4.315591|   -6.239094|    0.822252|    0.011822|
|          99|   -4.316182|   -6.242384|    0.822256|    0.011814|
|         100|   -4.316870|   -6.245954|    0.822262|    0.011807|
|         101|   -4.317709|   -6.249832|    0.822267|    0.011924|
+-----------------------------------------------------------------------+
|Fixed CL Mode                           |Value                         |
+-----------------------------------------------------------------------+
|Current CL                              |0.822267                      |
|Target CL                               |0.824                         |
|Previous AOA                            |2.7845                        |
|Changed AoA by                          |0.0086913                     |
+-----------------------------------------------------------------------+
+----------------------------------------------------------------+
|  Inner_Iter|    rms[Rho]|     rms[nu]|          CL|          CD|
+----------------------------------------------------------------+
|         102|   -2.254300|   -6.149885|    0.822276|    0.011918|
|         103|   -2.639211|   -6.201077|    0.822287|    0.011913|
|         104|   -2.885015|   -6.220878|    0.822299|    0.011908|
|         105|   -2.965192|   -6.234187|    0.822313|    0.011904|
|         106|   -3.019544|   -6.245662|    0.822329|    0.011901|
|         107|   -3.089832|   -6.256291|    0.822346|    0.011899|
|         108|   -3.176675|   -6.266423|    0.822364|    0.011898|
|         109|   -3.267055|   -6.276034|    0.822384|    0.011897|
|         110|   -3.343933|   -6.285261|    0.822405|    0.011898|
|         111|   -3.398787|   -6.294115|    0.822427|    0.011899|
|         112|   -3.433758|   -6.302568|    0.822449|    0.011900|
|         113|   -3.453353|   -6.310720|    0.822471|    0.011903|
|         114|   -3.461829|   -6.318784|    0.822494|    0.011906|
|         115|   -3.465072|   -6.326886|    0.822517|    0.011910|
|         116|   -3.469489|   -6.335065|    0.822539|    0.011914|
|         117|   -3.479301|   -6.343284|    0.822561|    0.011919|
|         118|   -3.495423|   -6.351486|    0.822582|    0.011925|
|         119|   -3.516016|   -6.359646|    0.822602|    0.011931|
|         120|   -3.537927|   -6.367799|    0.822622|    0.011937|
|         121|   -3.558485|   -6.375994|    0.822640|    0.011944|
|         122|   -3.576800|   -6.384171|    0.822658|    0.011950|
|         123|   -3.593706|   -6.392153|    0.822674|    0.011958|
|         124|   -3.610620|   -6.399798|    0.822689|    0.011965|
|         125|   -3.628441|   -6.407028|    0.822704|    0.011973|
|         126|   -3.647159|   -6.413661|    0.822717|    0.011980|
|         127|   -3.666063|   -6.419631|    0.822730|    0.011988|
|         128|   -3.684156|   -6.424933|    0.822741|    0.011996|
|         129|   -3.700492|   -6.429623|    0.822752|    0.012005|
|         130|   -3.714377|   -6.433746|    0.822763|    0.012013|
|         131|   -3.725508|   -6.437356|    0.822773|    0.012022|
|         132|   -3.734077|   -6.440580|    0.822783|    0.012030|
|         133|   -3.740783|   -6.443387|    0.822793|    0.012039|
|         134|   -3.746672|   -6.445886|    0.822803|    0.012048|
|         135|   -3.752868|   -6.448227|    0.822814|    0.012057|
|         136|   -3.760312|   -6.450486|    0.822825|    0.012066|
|         137|   -3.769589|   -6.452616|    0.822836|    0.012076|
|         138|   -3.780865|   -6.454546|    0.822848|    0.012086|
|         139|   -3.793881|   -6.456321|    0.822862|    0.012095|
|         140|   -3.807989|   -6.457944|    0.822876|    0.012105|
|         141|   -3.822250|   -6.459438|    0.822891|    0.012115|
|         142|   -3.835604|   -6.460774|    0.822908|    0.012125|
|         143|   -3.847133|   -6.461970|    0.822926|    0.012136|
|         144|   -3.856336|   -6.462957|    0.822946|    0.012146|
|         145|   -3.863289|   -6.463756|    0.822967|    0.012157|
|         146|   -3.868600|   -6.464308|    0.822990|    0.012167|
|         147|   -3.873185|   -6.464579|    0.823015|    0.012178|
|         148|   -3.877982|   -6.464525|    0.823041|    0.012189|
|         149|   -3.883725|   -6.464125|    0.823070|    0.012200|
|         150|   -3.890820|   -6.463327|    0.823100|    0.012211|
|         151|   -3.899335|   -6.462103|    0.823133|    0.012221|
|         152|   -3.909038|   -6.460472|    0.823168|    0.012232|
|         153|   -3.919499|   -6.458425|    0.823206|    0.012243|
|         154|   -3.930197|   -6.455955|    0.823245|    0.012254|
|         155|   -3.940637|   -6.453074|    0.823287|    0.012265|
|         156|   -3.950450|   -6.449831|    0.823331|    0.012276|
|         157|   -3.959454|   -6.446277|    0.823378|    0.012286|
|         158|   -3.967654|   -6.442503|    0.823427|    0.012297|
|         159|   -3.975205|   -6.438613|    0.823477|    0.012307|
|         160|   -3.982341|   -6.434681|    0.823530|    0.012317|
|         161|   -3.989308|   -6.430815|    0.823585|    0.012327|
|         162|   -3.996308|   -6.427115|    0.823641|    0.012336|
|         163|   -4.003470|   -6.423729|    0.823698|    0.012345|
|         164|   -4.010854|   -6.420745|    0.823757|    0.012354|
|         165|   -4.018458|   -6.418248|    0.823817|    0.012363|
|         166|   -4.026244|   -6.416298|    0.823877|    0.012371|
|         167|   -4.034157|   -6.414945|    0.823937|    0.012379|
|         168|   -4.042142|   -6.414225|    0.823997|    0.012386|
|         169|   -4.050156|   -6.414156|    0.824056|    0.012393|
|         170|   -4.058166|   -6.414745|    0.824115|    0.012400|
|         171|   -4.066145|   -6.415978|    0.824172|    0.012406|
|         172|   -4.074071|   -6.417822|    0.824227|    0.012411|
|         173|   -4.081916|   -6.420216|    0.824281|    0.012416|
|         174|   -4.089645|   -6.423090|    0.824332|    0.012420|
|         175|   -4.097211|   -6.426356|    0.824380|    0.012424|
|         176|   -4.104562|   -6.429900|    0.824425|    0.012427|
|         177|   -4.111639|   -6.433600|    0.824466|    0.012430|
|         178|   -4.118380|   -6.437336|    0.824504|    0.012432|
|         179|   -4.124728|   -6.440973|    0.824537|    0.012433|
|         180|   -4.130632|   -6.444380|    0.824567|    0.012434|
|         181|   -4.136051|   -6.447457|    0.824592|    0.012434|
|         182|   -4.140953|   -6.450084|    0.824613|    0.012433|
|         183|   -4.145325|   -6.452185|    0.824629|    0.012432|
|         184|   -4.149163|   -6.453725|    0.824641|    0.012430|
|         185|   -4.152482|   -6.454708|    0.824648|    0.012428|
|         186|   -4.155311|   -6.455175|    0.824651|    0.012425|
|         187|   -4.157693|   -6.455197|    0.824650|    0.012422|
|         188|   -4.159685|   -6.454865|    0.824644|    0.012418|
|         189|   -4.161353|   -6.454325|    0.824634|    0.012414|
|         190|   -4.162773|   -6.453739|    0.824621|    0.012409|
|         191|   -4.164022|   -6.453220|    0.824604|    0.012404|
|         192|   -4.165183|   -6.452911|    0.824584|    0.012399|
|         193|   -4.166334|   -6.452941|    0.824560|    0.012393|
|         194|   -4.167549|   -6.453459|    0.824534|    0.012387|
|         195|   -4.168896|   -6.454540|    0.824506|    0.012380|
|         196|   -4.170436|   -6.456296|    0.824475|    0.012373|
|         197|   -4.172217|   -6.458801|    0.824442|    0.012366|
|         198|   -4.174279|   -6.462111|    0.824407|    0.012358|
|         199|   -4.176651|   -6.466271|    0.824371|    0.012351|
|         200|   -4.179349|   -6.471307|    0.824334|    0.012343|
|         201|   -4.182378|   -6.477233|    0.824297|    0.012311|
+-----------------------------------------------------------------------+
|Fixed CL Mode                           |Value                         |
+-----------------------------------------------------------------------+
|Current CL                              |0.824297                      |
|Target CL                               |0.824                         |
|Previous AOA                            |2.79319                       |
|Changed AoA by                          |-0.00167212                   |
+-----------------------------------------------------------------------+
+----------------------------------------------------------------+
|  Inner_Iter|    rms[Rho]|     rms[nu]|          CL|          CD|
+----------------------------------------------------------------+
|         202|   -2.969475|   -6.470261|    0.824259|    0.012303|
|         203|   -3.353254|   -6.484714|    0.824220|    0.012294|
|         204|   -3.596469|   -6.495009|    0.824182|    0.012286|
|         205|   -3.673177|   -6.505058|    0.824143|    0.012277|
|         206|   -3.722577|   -6.515409|    0.824105|    0.012269|
|         207|   -3.785036|   -6.526112|    0.824068|    0.012260|
|         208|   -3.859153|   -6.537077|    0.824032|    0.012252|
|         209|   -3.930703|   -6.548170|    0.823997|    0.012243|
|         210|   -3.985096|   -6.559203|    0.823963|    0.012235|
|         211|   -4.018879|   -6.569963|    0.823931|    0.012226|
|         212|   -4.037470|   -6.580221|    0.823900|    0.012218|
|         213|   -4.046475|   -6.589760|    0.823872|    0.012210|
|         214|   -4.049811|   -6.598395|    0.823845|    0.012202|
|         215|   -4.051202|   -6.605964|    0.823821|    0.012194|
|         216|   -4.054060|   -6.612342|    0.823799|    0.012186|
|         217|   -4.060341|   -6.617446|    0.823780|    0.012179|
|         218|   -4.070023|   -6.621268|    0.823763|    0.012172|
|         219|   -4.081534|   -6.623788|    0.823749|    0.012165|
|         220|   -4.092791|   -6.625091|    0.823737|    0.012159|
|         221|   -4.102306|   -6.625318|    0.823729|    0.012153|
|         222|   -4.109762|   -6.624642|    0.823723|    0.012147|
|         223|   -4.115770|   -6.623263|    0.823720|    0.012142|
|         224|   -4.121193|   -6.621388|    0.823721|    0.012137|
|         225|   -4.126630|   -6.619229|    0.823724|    0.012132|
|         226|   -4.132276|   -6.617001|    0.823730|    0.012128|
|         227|   -4.138048|   -6.614889|    0.823738|    0.012124|
|         228|   -4.143758|   -6.613063|    0.823750|    0.012121|
|         229|   -4.149212|   -6.611669|    0.823764|    0.012118|
|         230|   -4.154256|   -6.610823|    0.823781|    0.012115|
|         231|   -4.158802|   -6.610622|    0.823800|    0.012113|
|         232|   -4.162862|   -6.611145|    0.823822|    0.012112|
|         233|   -4.166569|   -6.612450|    0.823845|    0.012111|
|         234|   -4.170160|   -6.614579|    0.823871|    0.012110|
|         235|   -4.173924|   -6.617541|    0.823898|    0.012110|
|         236|   -4.178128|   -6.621332|    0.823927|    0.012110|
|         237|   -4.182963|   -6.625928|    0.823957|    0.012110|
|         238|   -4.188512|   -6.631277|    0.823988|    0.012111|
|         239|   -4.194740|   -6.637304|    0.824020|    0.012113|
|         240|   -4.201507|   -6.643915|    0.824053|    0.012114|
|         241|   -4.208598|   -6.650990|    0.824086|    0.012116|
|         242|   -4.215773|   -6.658388|    0.824120|    0.012118|
|         243|   -4.222816|   -6.665948|    0.824153|    0.012120|
|         244|   -4.229588|   -6.673504|    0.824187|    0.012123|
|         245|   -4.236052|   -6.680879|    0.824219|    0.012126|
|         246|   -4.242266|   -6.687890|    0.824251|    0.012129|
|         247|   -4.248358|   -6.694363|    0.824283|    0.012132|
|         248|   -4.254472|   -6.700136|    0.824313|    0.012135|
|         249|   -4.260729|   -6.705074|    0.824341|    0.012139|
|         250|   -4.267192|   -6.709082|    0.824368|    0.012142|
|         251|   -4.273856|   -6.712108|    0.824394|    0.012146|
|         252|   -4.280658|   -6.714152|    0.824418|    0.012149|
|         253|   -4.287493|   -6.715249|    0.824439|    0.012153|
|         254|   -4.294242|   -6.715475|    0.824459|    0.012156|
|         255|   -4.300800|   -6.714939|    0.824477|    0.012160|
|         256|   -4.307089|   -6.713774|    0.824493|    0.012163|
|         257|   -4.313070|   -6.712122|    0.824506|    0.012167|
|         258|   -4.318739|   -6.710128|    0.824517|    0.012170|
|         259|   -4.324118|   -6.707932|    0.824526|    0.012173|
|         260|   -4.329241|   -6.705659|    0.824533|    0.012177|
|         261|   -4.334143|   -6.703403|    0.824538|    0.012180|
|         262|   -4.338846|   -6.701236|    0.824541|    0.012183|
|         263|   -4.343358|   -6.699220|    0.824542|    0.012185|
|         264|   -4.347671|   -6.697390|    0.824541|    0.012188|
|         265|   -4.351763|   -6.695762|    0.824539|    0.012191|
|         266|   -4.355605|   -6.694322|    0.824535|    0.012193|
|         267|   -4.359161|   -6.693044|    0.824530|    0.012195|
|         268|   -4.362398|   -6.691871|    0.824524|    0.012198|
|         269|   -4.365282|   -6.690742|    0.824517|    0.012200|
|         270|   -4.367782|   -6.689578|    0.824510|    0.012202|
|         271|   -4.369873|   -6.688290|    0.824502|    0.012204|
|         272|   -4.371533|   -6.686794|    0.824493|    0.012206|
|         273|   -4.372745|   -6.685016|    0.824484|    0.012208|
|         274|   -4.373498|   -6.682894|    0.824476|    0.012209|
|         275|   -4.373787|   -6.680384|    0.824467|    0.012211|
|         276|   -4.373614|   -6.677463|    0.824459|    0.012213|
|         277|   -4.372989|   -6.674130|    0.824452|    0.012215|
|         278|   -4.371929|   -6.670407|    0.824445|    0.012216|
|         279|   -4.370463|   -6.666338|    0.824438|    0.012218|
|         280|   -4.368622|   -6.661986|    0.824433|    0.012219|
|         281|   -4.366446|   -6.657429|    0.824428|    0.012221|
|         282|   -4.363979|   -6.652752|    0.824424|    0.012222|
|         283|   -4.361268|   -6.648044|    0.824421|    0.012224|
|         284|   -4.358363|   -6.643393|    0.824420|    0.012225|
|         285|   -4.355313|   -6.638881|    0.824419|    0.012226|
|         286|   -4.352166|   -6.634584|    0.824419|    0.012228|
|         287|   -4.348970|   -6.630571|    0.824420|    0.012229|
|         288|   -4.345771|   -6.626894|    0.824421|    0.012230|
|         289|   -4.342608|   -6.623596|    0.824424|    0.012231|
|         290|   -4.339522|   -6.620694|    0.824427|    0.012232|
|         291|   -4.336547|   -6.618200|    0.824431|    0.012233|
|         292|   -4.333713|   -6.616117|    0.824435|    0.012234|
|         293|   -4.331048|   -6.614436|    0.824440|    0.012235|
|         294|   -4.328574|   -6.613137|    0.824446|    0.012235|
|         295|   -4.326312|   -6.612190|    0.824452|    0.012236|
|         296|   -4.324277|   -6.611555|    0.824458|    0.012236|
|         297|   -4.322481|   -6.611192|    0.824464|    0.012236|
|         298|   -4.320935|   -6.611054|    0.824471|    0.012236|
|         299|   -4.319646|   -6.611090|    0.824477|    0.012236|
|         300|   -4.318618|   -6.611250|    0.824484|    0.012236|
|         301|   -4.317853|   -6.611485|    0.824491|    0.012200|
+-----------------------------------------------------------------------+
|Fixed CL Mode                           |Value                         |
+-----------------------------------------------------------------------+
|Current CL                              |0.824491                      |
|Target CL                               |0.824                         |
|Previous AOA                            |2.79152                       |
|Changed AoA by                          |-0.00241924                   |
+-----------------------------------------------------------------------+
+----------------------------------------------------------------+
|  Inner_Iter|    rms[Rho]|     rms[nu]|          CL|          CD|
+----------------------------------------------------------------+
|         302|   -2.809454|   -6.562701|    0.824498|    0.012200|
|         303|   -3.193210|   -6.586765|    0.824504|    0.012199|
|         304|   -3.436225|   -6.594479|    0.824511|    0.012198|
|         305|   -3.514670|   -6.598709|    0.824517|    0.012197|
|         306|   -3.567466|   -6.601557|    0.824523|    0.012195|
|         307|   -3.635100|   -6.603557|    0.824529|    0.012194|
|         308|   -3.717402|   -6.604924|    0.824535|    0.012192|
|         309|   -3.801119|   -6.605818|    0.824541|    0.012190|
|         310|   -3.870421|   -6.606351|    0.824547|    0.012188|
|         311|   -3.918817|   -6.606593|    0.824552|    0.012186|
|         312|   -3.949478|   -6.606605|    0.824558|    0.012183|
|         313|   -3.966952|   -6.606487|    0.824563|    0.012181|
|         314|   -3.975037|   -6.606352|    0.824568|    0.012178|
|         315|   -3.978631|   -6.606282|    0.824574|    0.012175|
|         316|   -3.983035|   -6.606316|    0.824579|    0.012173|
|         317|   -3.991770|   -6.606464|    0.824584|    0.012170|
|         318|   -4.005571|   -6.606733|    0.824590|    0.012167|
|         319|   -4.022869|   -6.607137|    0.824595|    0.012164|
|         320|   -4.041087|   -6.607700|    0.824600|    0.012160|
|         321|   -4.058170|   -6.608437|    0.824606|    0.012157|
|         322|   -4.073524|   -6.609352|    0.824611|    0.012154|
|         323|   -4.087851|   -6.610436|    0.824616|    0.012151|
|         324|   -4.102208|   -6.611673|    0.824622|    0.012147|
|         325|   -4.117186|   -6.613048|    0.824627|    0.012144|
|         326|   -4.132665|   -6.614557|    0.824633|    0.012141|
|         327|   -4.148020|   -6.616197|    0.824639|    0.012138|
|         328|   -4.162472|   -6.617971|    0.824644|    0.012135|
|         329|   -4.175354|   -6.619883|    0.824650|    0.012132|
|         330|   -4.186244|   -6.621936|    0.824656|    0.012129|
|         331|   -4.195031|   -6.624131|    0.824661|    0.012126|
|         332|   -4.201946|   -6.626477|    0.824667|    0.012123|
|         333|   -4.207539|   -6.628979|    0.824672|    0.012120|
|         334|   -4.212554|   -6.631635|    0.824678|    0.012118|
|         335|   -4.217749|   -6.634433|    0.824683|    0.012115|
|         336|   -4.223728|   -6.637363|    0.824688|    0.012113|
|         337|   -4.230824|   -6.640409|    0.824693|    0.012111|
|         338|   -4.239067|   -6.643553|    0.824697|    0.012109|
|         339|   -4.248193|   -6.646776|    0.824702|    0.012107|
|         340|   -4.257698|   -6.650072|    0.824706|    0.012105|
|         341|   -4.266933|   -6.653422|    0.824710|    0.012104|
|         342|   -4.275242|   -6.656811|    0.824713|    0.012103|
|         343|   -4.282120|   -6.660222|    0.824716|    0.012101|
|         344|   -4.287349|   -6.663644|    0.824719|    0.012100|
|         345|   -4.291053|   -6.667074|    0.824721|    0.012100|
|         346|   -4.293635|   -6.670507|    0.824723|    0.012099|
|         347|   -4.295640|   -6.673937|    0.824724|    0.012098|
|         348|   -4.297599|   -6.677370|    0.824725|    0.012098|
|         349|   -4.299904|   -6.680801|    0.824725|    0.012098|
|         350|   -4.302752|   -6.684226|    0.824725|    0.012097|
|         351|   -4.306143|   -6.687649|    0.824724|    0.012097|
|         352|   -4.309926|   -6.691074|    0.824722|    0.012098|
|         353|   -4.313861|   -6.694508|    0.824720|    0.012098|
|         354|   -4.317695|   -6.697964|    0.824717|    0.012098|
|         355|   -4.321220|   -6.701446|    0.824713|    0.012099|
|         356|   -4.324315|   -6.704949|    0.824708|    0.012099|
|         357|   -4.326958|   -6.708478|    0.824703|    0.012100|
|         358|   -4.329213|   -6.712045|    0.824697|    0.012100|
|         359|   -4.331200|   -6.715664|    0.824690|    0.012101|
|         360|   -4.333058|   -6.719347|    0.824682|    0.012102|
|         361|   -4.334921|   -6.723117|    0.824674|    0.012103|
|         362|   -4.336896|   -6.726996|    0.824664|    0.012104|
|         363|   -4.339056|   -6.731004|    0.824655|    0.012105|
|         364|   -4.341443|   -6.735160|    0.824644|    0.012106|
|         365|   -4.344079|   -6.739491|    0.824633|    0.012107|
|         366|   -4.346970|   -6.744020|    0.824622|    0.012108|
|         367|   -4.350121|   -6.748762|    0.824610|    0.012109|
|         368|   -4.353536|   -6.753749|    0.824598|    0.012110|
|         369|   -4.357224|   -6.758994|    0.824585|    0.012111|
|         370|   -4.361199|   -6.764506|    0.824573|    0.012112|
|         371|   -4.365475|   -6.770295|    0.824560|    0.012113|
|         372|   -4.370065|   -6.776368|    0.824547|    0.012114|
|         373|   -4.374980|   -6.782724|    0.824535|    0.012115|
|         374|   -4.380228|   -6.789346|    0.824523|    0.012116|
|         375|   -4.385809|   -6.796217|    0.824511|    0.012117|
|         376|   -4.391720|   -6.803304|    0.824499|    0.012118|
|         377|   -4.397956|   -6.810574|    0.824488|    0.012119|
|         378|   -4.404504|   -6.817983|    0.824478|    0.012120|
|         379|   -4.411350|   -6.825477|    0.824468|    0.012121|
|         380|   -4.418479|   -6.833001|    0.824459|    0.012122|
|         381|   -4.425869|   -6.840491|    0.824450|    0.012123|
|         382|   -4.433497|   -6.847881|    0.824443|    0.012124|
|         383|   -4.441338|   -6.855098|    0.824436|    0.012124|
|         384|   -4.449361|   -6.862076|    0.824430|    0.012125|
|         385|   -4.457533|   -6.868715|    0.824425|    0.012126|
|         386|   -4.465815|   -6.874956|    0.824421|    0.012126|
|         387|   -4.474168|   -6.880733|    0.824417|    0.012127|
|         388|   -4.482544|   -6.886015|    0.824414|    0.012127|
|         389|   -4.490897|   -6.890793|    0.824413|    0.012127|
|         390|   -4.499174|   -6.895078|    0.824411|    0.012128|
|         391|   -4.507322|   -6.898896|    0.824411|    0.012128|
|         392|   -4.515284|   -6.902296|    0.824411|    0.012128|
|         393|   -4.523003|   -6.905347|    0.824412|    0.012128|
|         394|   -4.530422|   -6.908119|    0.824414|    0.012128|
|         395|   -4.537485|   -6.910704|    0.824416|    0.012128|
|         396|   -4.544138|   -6.913206|    0.824419|    0.012128|
|         397|   -4.550330|   -6.915728|    0.824422|    0.012127|
|         398|   -4.556016|   -6.918369|    0.824426|    0.012127|
|         399|   -4.561158|   -6.921225|    0.824430|    0.012127|
|         400|   -4.565727|   -6.924386|    0.824434|    0.012126|
|         401|   -4.569699|   -6.927931|    0.824440|    0.012094|
+-----------------------------------------------------------------------+
|Fixed CL Mode                           |Value                         |
+-----------------------------------------------------------------------+
|Current CL                              |0.82444                       |
|Target CL                               |0.824                         |
|Previous AOA                            |2.7891                        |
|Changed AoA by                          |-0.00217181                   |
+-----------------------------------------------------------------------+
+----------------------------------------------------------------+
|  Inner_Iter|    rms[Rho]|     rms[nu]|          CL|          CD|
+----------------------------------------------------------------+
|         402|   -2.856494|   -6.794043|    0.824445|    0.012094|
|         403|   -3.240252|   -6.857116|    0.824450|    0.012093|
|         404|   -3.482383|   -6.882247|    0.824455|    0.012093|
|         405|   -3.560276|   -6.899240|    0.824461|    0.012092|
|         406|   -3.613556|   -6.913617|    0.824466|    0.012091|
|         407|   -3.682648|   -6.926713|    0.824472|    0.012091|
|         408|   -3.767825|   -6.938946|    0.824478|    0.012090|
|         409|   -3.856432|   -6.950570|    0.824484|    0.012089|
|         410|   -3.932397|   -6.961728|    0.824489|    0.012089|
|         411|   -3.987801|   -6.972405|    0.824495|    0.012088|
|         412|   -4.024368|   -6.982564|    0.824501|    0.012087|
|         413|   -4.045815|   -6.992349|    0.824506|    0.012087|
|         414|   -4.055763|   -7.002011|    0.824511|    0.012086|
|         415|   -4.059729|   -7.011727|    0.824516|    0.012085|
|         416|   -4.064027|   -7.021489|    0.824521|    0.012085|
|         417|   -4.072934|   -7.031170|    0.824525|    0.012084|
|         418|   -4.087480|   -7.040662|    0.824529|    0.012084|
|         419|   -4.106001|   -7.049919|    0.824533|    0.012083|
|         420|   -4.125617|   -7.058955|    0.824536|    0.012083|
|         421|   -4.143971|   -7.067775|    0.824539|    0.012082|
|         422|   -4.160374|   -7.076314|    0.824541|    0.012082|
|         423|   -4.175641|   -7.084421|    0.824543|    0.012081|
|         424|   -4.191008|   -7.091895|    0.824545|    0.012081|
|         425|   -4.207155|   -7.098523|    0.824546|    0.012081|
|         426|   -4.223908|   -7.104158|    0.824547|    0.012081|
|         427|   -4.240490|   -7.108683|    0.824547|    0.012080|
|         428|   -4.255942|   -7.112077|    0.824547|    0.012080|
|         429|   -4.269461|   -7.114365|    0.824547|    0.012080|
|         430|   -4.280565|   -7.115594|    0.824546|    0.012080|
|         431|   -4.289184|   -7.115875|    0.824544|    0.012080|
|         432|   -4.295676|   -7.115406|    0.824543|    0.012080|
|         433|   -4.300783|   -7.114344|    0.824540|    0.012080|
|         434|   -4.305466|   -7.112822|    0.824538|    0.012080|
|         435|   -4.310676|   -7.110962|    0.824535|    0.012080|
|         436|   -4.317164|   -7.108848|    0.824531|    0.012080|
|         437|   -4.325354|   -7.106537|    0.824528|    0.012081|
|         438|   -4.335313|   -7.104089|    0.824524|    0.012081|
|         439|   -4.346757|   -7.101536|    0.824519|    0.012081|
|         440|   -4.359107|   -7.098906|    0.824515|    0.012081|
|         441|   -4.371578|   -7.096222|    0.824510|    0.012082|
|         442|   -4.383334|   -7.093496|    0.824505|    0.012082|
|         443|   -4.393685|   -7.090804|    0.824499|    0.012083|
|         444|   -4.402286|   -7.088179|    0.824494|    0.012084|
|         445|   -4.409231|   -7.085639|    0.824488|    0.012084|
|         446|   -4.415013|   -7.083214|    0.824482|    0.012085|
|         447|   -4.420349|   -7.080909|    0.824476|    0.012086|
|         448|   -4.425969|   -7.078744|    0.824469|    0.012087|
|         449|   -4.432448|   -7.076706|    0.824462|    0.012087|
|         450|   -4.440109|   -7.074794|    0.824455|    0.012088|
|         451|   -4.449005|   -7.072948|    0.824447|    0.012089|
|         452|   -4.458956|   -7.071133|    0.824439|    0.012090|
|         453|   -4.469620|   -7.069353|    0.824431|    0.012091|
|         454|   -4.480588|   -7.067576|    0.824423|    0.012092|
|         455|   -4.491467|   -7.065775|    0.824414|    0.012094|
|         456|   -4.501964|   -7.063830|    0.824404|    0.012095|
|         457|   -4.511924|   -7.061711|    0.824394|    0.012096|
|         458|   -4.521338|   -7.059391|    0.824384|    0.012097|
|         459|   -4.530307|   -7.056843|    0.824373|    0.012098|
|         460|   -4.538999|   -7.054074|    0.824361|    0.012100|
|         461|   -4.547585|   -7.051123|    0.824350|    0.012101|
|         462|   -4.556207|   -7.048027|    0.824337|    0.012102|
|         463|   -4.564951|   -7.044886|    0.824325|    0.012103|
|         464|   -4.573845|   -7.041724|    0.824311|    0.012105|
|         465|   -4.582867|   -7.038634|    0.824298|    0.012106|
|         466|   -4.591968|   -7.035718|    0.824284|    0.012107|
|         467|   -4.601083|   -7.033072|    0.824270|    0.012108|
|         468|   -4.610151|   -7.030802|    0.824256|    0.012109|
|         469|   -4.619121|   -7.028998|    0.824242|    0.012110|
|         470|   -4.627952|   -7.027742|    0.824228|    0.012111|
|         471|   -4.636613|   -7.027115|    0.824214|    0.012112|
|         472|   -4.645077|   -7.027182|    0.824200|    0.012113|
|         473|   -4.653318|   -7.027989|    0.824186|    0.012114|
|         474|   -4.661303|   -7.029565|    0.824173|    0.012115|
|         475|   -4.668999|   -7.031914|    0.824160|    0.012116|
|         476|   -4.676367|   -7.035016|    0.824148|    0.012117|
|         477|   -4.683372|   -7.038824|    0.824136|    0.012118|
|         478|   -4.689981|   -7.043262|    0.824125|    0.012119|
|         479|   -4.696172|   -7.048219|    0.824115|    0.012119|
|         480|   -4.701933|   -7.053561|    0.824106|    0.012120|
|         481|   -4.707263|   -7.059131|    0.824097|    0.012120|
|         482|   -4.712175|   -7.064742|    0.824090|    0.012121|
|         483|   -4.716692|   -7.070195|    0.824083|    0.012121|
|         484|   -4.720849|   -7.075277|    0.824078|    0.012122|
|         485|   -4.724689|   -7.079781|    0.824074|    0.012122|
|         486|   -4.728260|   -7.083517|    0.824071|    0.012122|
|         487|   -4.731618|   -7.086329|    0.824069|    0.012122|
|         488|   -4.734820|   -7.088113|    0.824068|    0.012122|
|         489|   -4.737924|   -7.088823|    0.824068|    0.012122|
|         490|   -4.740989|   -7.088473|    0.824069|    0.012122|
|         491|   -4.744073|   -7.087142|    0.824071|    0.012121|
|         492|   -4.747228|   -7.084965|    0.824074|    0.012121|
|         493|   -4.750505|   -7.082119|    0.824077|    0.012120|
|         494|   -4.753948|   -7.078809|    0.824082|    0.012120|
|         495|   -4.757594|   -7.075244|    0.824088|    0.012119|
|         496|   -4.761476|   -7.071630|    0.824094|    0.012118|
|         497|   -4.765618|   -7.068164|    0.824101|    0.012117|
|         498|   -4.770040|   -7.065018|    0.824108|    0.012116|
|         499|   -4.774753|   -7.062337|    0.824117|    0.012115|
|         500|   -4.779761|   -7.060239|    0.824125|    0.012114|
|         501|   -4.785062|   -7.058806|    0.824134|    0.012103|
+-----------------------------------------------------------------------+
|Fixed CL Mode                           |Value                         |
+-----------------------------------------------------------------------+
|Current CL                              |0.824134                      |
|Target CL                               |0.824                         |
|Previous AOA                            |2.78693                       |
|Changed AoA by                          |-0.000626383                  |
+-----------------------------------------------------------------------+
+----------------------------------------------------------------+
|  Inner_Iter|    rms[Rho]|     rms[nu]|          CL|          CD|
+----------------------------------------------------------------+
|         502|   -3.396203|   -7.030793|    0.824144|    0.012102|
|         503|   -3.777308|   -7.044099|    0.824154|    0.012101|
|         504|   -4.011955|   -7.048807|    0.824164|    0.012099|
|         505|   -4.085620|   -7.052431|    0.824174|    0.012098|
|         506|   -4.136725|   -7.056089|    0.824184|    0.012096|
|         507|   -4.202917|   -7.059964|    0.824194|    0.012094|
|         508|   -4.283642|   -7.064029|    0.824205|    0.012093|
|         509|   -4.366776|   -7.068206|    0.824215|    0.012091|
|         510|   -4.438222|   -7.072386|    0.824225|    0.012089|
|         511|   -4.491809|   -7.076434|    0.824235|    0.012087|
|         512|   -4.529243|   -7.080214|    0.824245|    0.012085|
|         513|   -4.553274|   -7.083622|    0.824254|    0.012084|
|         514|   -4.566398|   -7.086581|    0.824263|    0.012082|
|         515|   -4.573063|   -7.089025|    0.824271|    0.012080|
|         516|   -4.578906|   -7.090895|    0.824280|    0.012078|
|         517|   -4.588056|   -7.092149|    0.824287|    0.012076|
|         518|   -4.601760|   -7.092786|    0.824294|    0.012074|
|         519|   -4.618784|   -7.092843|    0.824301|    0.012072|
|         520|   -4.636788|   -7.092396|    0.824307|    0.012071|
|         521|   -4.653872|   -7.091538|    0.824312|    0.012069|
|         522|   -4.669519|   -7.090371|    0.824317|    0.012067|
|         523|   -4.684388|   -7.088995|    0.824321|    0.012065|
|         524|   -4.699386|   -7.087511|    0.824324|    0.012064|
|         525|   -4.714870|   -7.086016|    0.824327|    0.012062|
|         526|   -4.730440|   -7.084599|    0.824329|    0.012060|
|         527|   -4.745218|   -7.083346|    0.824331|    0.012059|
|         528|   -4.758267|   -7.082330|    0.824332|    0.012057|
|         529|   -4.768925|   -7.081613|    0.824332|    0.012056|
|         530|   -4.776935|   -7.081242|    0.824332|    0.012055|
|         531|   -4.782468|   -7.081244|    0.824331|    0.012053|
|         532|   -4.786058|   -7.081631|    0.824330|    0.012052|
|         533|   -4.788487|   -7.082399|    0.824328|    0.012051|
|         534|   -4.790619|   -7.083530|    0.824326|    0.012050|
|         535|   -4.793213|   -7.084986|    0.824323|    0.012049|
|         536|   -4.796792|   -7.086719|    0.824320|    0.012048|
|         537|   -4.801574|   -7.088674|    0.824317|    0.012047|
|         538|   -4.807477|   -7.090789|    0.824313|    0.012047|
|         539|   -4.814162|   -7.093000|    0.824309|    0.012046|
|         540|   -4.821113|   -7.095248|    0.824305|    0.012046|
|         541|   -4.827733|   -7.097476|    0.824300|    0.012046|
|         542|   -4.833482|   -7.099634|    0.824296|    0.012045|
|         543|   -4.838002|   -7.101688|    0.824291|    0.012045|
|         544|   -4.841212|   -7.103615|    0.824286|    0.012046|
|         545|   -4.843325|   -7.105409|    0.824281|    0.012046|
|         546|   -4.844766|   -7.107076|    0.824277|    0.012046|
|         547|   -4.846052|   -7.108632|    0.824272|    0.012047|
|         548|   -4.847658|   -7.110105|    0.824267|    0.012047|
|         549|   -4.849926|   -7.111529|    0.824262|    0.012048|
|         550|   -4.853024|   -7.112940|    0.824256|    0.012049|
|         551|   -4.856951|   -7.114380|    0.824251|    0.012050|
|         552|   -4.861576|   -7.115883|    0.824246|    0.012051|
|         553|   -4.866691|   -7.117480|    0.824241|    0.012053|
|         554|   -4.872075|   -7.119196|    0.824236|    0.012054|
|         555|   -4.877537|   -7.121038|    0.824231|    0.012056|
|         556|   -4.882952|   -7.123003|    0.824226|    0.012057|
|         557|   -4.888273|   -7.125075|    0.824221|    0.012059|
|         558|   -4.893524|   -7.127227|    0.824216|    0.012061|
|         559|   -4.898774|   -7.129416|    0.824211|    0.012063|
|         560|   -4.904111|   -7.131592|    0.824206|    0.012065|
|         561|   -4.909618|   -7.133698|    0.824201|    0.012067|
|         562|   -4.915358|   -7.135669|    0.824195|    0.012070|
|         563|   -4.921362|   -7.137449|    0.824190|    0.012072|
|         564|   -4.927631|   -7.138987|    0.824184|    0.012075|
|         565|   -4.934146|   -7.140243|    0.824178|    0.012077|
|         566|   -4.940869|   -7.141191|    0.824172|    0.012080|
|         567|   -4.947759|   -7.141820|    0.824166|    0.012082|
|         568|   -4.954771|   -7.142140|    0.824160|    0.012085|
|         569|   -4.961862|   -7.142180|    0.824154|    0.012088|
|         570|   -4.968991|   -7.141987|    0.824148|    0.012090|
|         571|   -4.976114|   -7.141621|    0.824141|    0.012093|
|         572|   -4.983188|   -7.141157|    0.824135|    0.012096|
|         573|   -4.990162|   -7.140668|    0.824128|    0.012098|
|         574|   -4.996980|   -7.140235|    0.824121|    0.012101|
|         575|   -5.003580|   -7.139935|    0.824115|    0.012104|
|         576|   -5.009899|   -7.139841|    0.824108|    0.012106|
|         577|   -5.015868|   -7.140016|    0.824102|    0.012109|
|         578|   -5.021423|   -7.140508|    0.824095|    0.012111|
|         579|   -5.026507|   -7.141351|    0.824088|    0.012114|
|         580|   -5.031067|   -7.142568|    0.824082|    0.012116|
|         581|   -5.035065|   -7.144162|    0.824076|    0.012119|
|         582|   -5.038475|   -7.146122|    0.824070|    0.012121|
|         583|   -5.041288|   -7.148419|    0.824064|    0.012123|
|         584|   -5.043507|   -7.151008|    0.824058|    0.012125|
|         585|   -5.045153|   -7.153830|    0.824052|    0.012127|
|         586|   -5.046261|   -7.156816|    0.824047|    0.012129|
|         587|   -5.046879|   -7.159888|    0.824042|    0.012131|
|         588|   -5.047066|   -7.162961|    0.824037|    0.012132|
|         589|   -5.046889|   -7.165948|    0.824033|    0.012134|
|         590|   -5.046421|   -7.168767|    0.824029|    0.012136|
|         591|   -5.045740|   -7.171341|    0.824025|    0.012137|
|         592|   -5.044922|   -7.173606|    0.824021|    0.012138|
|         593|   -5.044044|   -7.175510|    0.824018|    0.012139|
|         594|   -5.043180|   -7.177022|    0.824015|    0.012140|
|         595|   -5.042400|   -7.178128|    0.824012|    0.012141|
|         596|   -5.041767|   -7.178832|    0.824010|    0.012142|
|         597|   -5.041340|   -7.179156|    0.824008|    0.012142|
|         598|   -5.041172|   -7.179136|    0.824007|    0.012143|
|         599|   -5.041308|   -7.178819|    0.824005|    0.012143|
|         600|   -5.041787|   -7.178258|    0.824004|    0.012144|
|         601|   -5.042644|   -7.177509|    0.824003|    0.012143|
+-----------------------------------------------------------------------+
|Fixed CL Mode                           |Value                         |
+-----------------------------------------------------------------------+
|Current CL                              |0.824003                      |
|Target CL                               |0.824                         |
|Previous AOA                            |2.7863                        |
|Changed AoA by                          |-2.03615e-05                  |
+-----------------------------------------------------------------------+
+----------------------------------------------------------------+
|  Inner_Iter|    rms[Rho]|     rms[nu]|          CL|          CD|
+----------------------------------------------------------------+
|         602|   -4.800720|   -7.176555|    0.824003|    0.012143|
|         603|   -4.973842|   -7.175608|    0.824002|    0.012143|
|         604|   -5.011238|   -7.174599|    0.824002|    0.012143|
|         605|   -5.018503|   -7.173575|    0.824002|    0.012143|
|         606|   -5.025854|   -7.172558|    0.824003|    0.012142|
|         607|   -5.035205|   -7.171556|    0.824003|    0.012142|
|         608|   -5.045171|   -7.170567|    0.824004|    0.012141|
|         609|   -5.054643|   -7.169580|    0.824005|    0.012140|
|         610|   -5.063302|   -7.168577|    0.824006|    0.012140|
|         611|   -5.071318|   -7.167536|    0.824007|    0.012139|
|         612|   -5.078912|   -7.166432|    0.824008|    0.012138|
|         613|   -5.086201|   -7.165240|    0.824009|    0.012137|
|         614|   -5.093233|   -7.163938|    0.824010|    0.012136|
|         615|   -5.100069|   -7.162510|    0.824011|    0.012134|
|         616|   -5.106787|   -7.160947|    0.824013|    0.012133|
|         617|   -5.113464|   -7.159247|    0.824014|    0.012132|
|         618|   -5.120143|   -7.157418|    0.824015|    0.012130|
|         619|   -5.126824|   -7.155476|    0.824016|    0.012129|
|         620|   -5.133476|   -7.153445|    0.824017|    0.012127|
|         621|   -5.140050|   -7.151358|    0.824018|    0.012126|
|         622|   -5.146488|   -7.149250|    0.824019|    0.012124|
|         623|   -5.152722|   -7.147164|    0.824020|    0.012123|
|         624|   -5.158673|   -7.145145|    0.824020|    0.012121|
|         625|   -5.164256|   -7.143235|    0.824021|    0.012119|
|         626|   -5.169395|   -7.141476|    0.824022|    0.012117|
|         627|   -5.174030|   -7.139908|    0.824022|    0.012116|
|         628|   -5.178130|   -7.138564|    0.824023|    0.012114|
|         629|   -5.181696|   -7.137474|    0.824023|    0.012112|
|         630|   -5.184754|   -7.136659|    0.824024|    0.012110|
|         631|   -5.187349|   -7.136136|    0.824024|    0.012109|
|         632|   -5.189538|   -7.135912|    0.824024|    0.012107|
|         633|   -5.191382|   -7.135989|    0.824024|    0.012105|
|         634|   -5.192942|   -7.136364|    0.824025|    0.012103|
|         635|   -5.194270|   -7.137025|    0.824025|    0.012101|
|         636|   -5.195415|   -7.137957|    0.824025|    0.012100|
|         637|   -5.196420|   -7.139143|    0.824026|    0.012098|
|         638|   -5.197326|   -7.140558|    0.824026|    0.012096|
|         639|   -5.198170|   -7.142179|    0.824026|    0.012095|
|         640|   -5.198989|   -7.143978|    0.824027|    0.012093|
|         641|   -5.199823|   -7.145931|    0.824028|    0.012092|
|         642|   -5.200711|   -7.148013|    0.824028|    0.012090|
|         643|   -5.201690|   -7.150202|    0.824029|    0.012089|
|         644|   -5.202798|   -7.152480|    0.824030|    0.012088|
|         645|   -5.204069|   -7.154833|    0.824031|    0.012086|
|         646|   -5.205532|   -7.157249|    0.824032|    0.012085|
|         647|   -5.207213|   -7.159720|    0.824034|    0.012084|
|         648|   -5.209128|   -7.162245|    0.824035|    0.012083|
|         649|   -5.211290|   -7.164822|    0.824036|    0.012082|
|         650|   -5.213705|   -7.167456|    0.824038|    0.012081|
|         651|   -5.216373|   -7.170155|    0.824040|    0.012081|
|         652|   -5.219289|   -7.172930|    0.824042|    0.012080|
|         653|   -5.222444|   -7.175786|    0.824044|    0.012079|
|         654|   -5.225829|   -7.178732|    0.824046|    0.012079|
|         655|   -5.229429|   -7.181779|    0.824048|    0.012078|
|         656|   -5.233230|   -7.184933|    0.824050|    0.012078|
|         657|   -5.237216|   -7.188202|    0.824053|    0.012078|
|         658|   -5.241370|   -7.191590|    0.824055|    0.012078|
|         659|   -5.245674|   -7.195101|    0.824058|    0.012078|
|         660|   -5.250110|   -7.198735|    0.824060|    0.012078|
|         661|   -5.254659|   -7.202492|    0.824063|    0.012078|
|         662|   -5.259301|   -7.206368|    0.824065|    0.012079|
|         663|   -5.264018|   -7.210356|    0.824067|    0.012079|
|         664|   -5.268789|   -7.214449|    0.824070|    0.012080|
|         665|   -5.273595|   -7.218639|    0.824072|    0.012080|
|         666|   -5.278417|   -7.222919|    0.824075|    0.012081|
|         667|   -5.283238|   -7.227280|    0.824077|    0.012082|
|         668|   -5.288038|   -7.231711|    0.824079|    0.012083|
|         669|   -5.292800|   -7.236204|    0.824081|    0.012083|
|         670|   -5.297508|   -7.240754|    0.824083|    0.012084|
|         671|   -5.302145|   -7.245354|    0.824085|    0.012085|
|         672|   -5.306694|   -7.250000|    0.824087|    0.012087|
|         673|   -5.311140|   -7.254690|    0.824089|    0.012088|
|         674|   -5.315466|   -7.259424|    0.824090|    0.012089|
|         675|   -5.319657|   -7.264201|    0.824092|    0.012090|
|         676|   -5.323699|   -7.269024|    0.824093|    0.012092|
|         677|   -5.327576|   -7.273894|    0.824094|    0.012093|
|         678|   -5.331275|   -7.278812|    0.824095|    0.012094|
|         679|   -5.334783|   -7.283781|    0.824096|    0.012096|
|         680|   -5.338090|   -7.288799|    0.824096|    0.012097|
|         681|   -5.341187|   -7.293867|    0.824097|    0.012099|
|         682|   -5.344066|   -7.298977|    0.824097|    0.012100|
|         683|   -5.346724|   -7.304124|    0.824098|    0.012102|
|         684|   -5.349162|   -7.309298|    0.824098|    0.012103|
|         685|   -5.351381|   -7.314485|    0.824098|    0.012105|
|         686|   -5.353388|   -7.319673|    0.824098|    0.012107|
|         687|   -5.355194|   -7.324843|    0.824098|    0.012108|
|         688|   -5.356813|   -7.329977|    0.824097|    0.012110|
|         689|   -5.358263|   -7.335054|    0.824097|    0.012111|
|         690|   -5.359566|   -7.340053|    0.824097|    0.012113|
|         691|   -5.360746|   -7.344952|    0.824096|    0.012114|
|         692|   -5.361830|   -7.349730|    0.824095|    0.012116|
|         693|   -5.362848|   -7.354369|    0.824095|    0.012117|
|         694|   -5.363829|   -7.358852|    0.824094|    0.012119|
|         695|   -5.364805|   -7.363164|    0.824093|    0.012120|
|         696|   -5.365806|   -7.367296|    0.824092|    0.012121|
|         697|   -5.366864|   -7.371241|    0.824092|    0.012123|
|         698|   -5.368005|   -7.374999|    0.824091|    0.012124|
|         699|   -5.369258|   -7.378574|    0.824090|    0.012125|
|         700|   -5.370644|   -7.381973|    0.824089|    0.012126|
|         701|   -5.372186|   -7.385208|    0.824088|    0.012121|
+-----------------------------------------------------------------------+
|Fixed CL Mode                           |Value                         |
+-----------------------------------------------------------------------+
|Current CL                              |0.824088                      |
|Target CL                               |0.824                         |
|Previous AOA                            |2.78628                       |
|Changed AoA by                          |-0.000443302                  |
+-----------------------------------------------------------------------+
+----------------------------------------------------------------+
|  Inner_Iter|    rms[Rho]|     rms[nu]|          CL|          CD|
+----------------------------------------------------------------+
|         702|   -3.546786|   -7.331472|    0.824087|    0.012122|
|         703|   -3.932053|   -7.361256|    0.824086|    0.012123|
|         704|   -4.177655|   -7.372188|    0.824085|    0.012124|
|         705|   -4.256504|   -7.379304|    0.824083|    0.012125|
|         706|   -4.309563|   -7.385116|    0.824082|    0.012126|
|         707|   -4.378643|   -7.390194|    0.824081|    0.012126|
|         708|   -4.464247|   -7.394697|    0.824080|    0.012127|
|         709|   -4.553539|   -7.398714|    0.824079|    0.012128|
|         710|   -4.629980|   -7.402305|    0.824077|    0.012128|
|         711|   -4.685303|   -7.405504|    0.824076|    0.012129|
|         712|   -4.721314|   -7.408361|    0.824075|    0.012129|
|         713|   -4.742022|   -7.410990|    0.824074|    0.012130|
|         714|   -4.751346|   -7.413534|    0.824072|    0.012130|
|         715|   -4.755037|   -7.416109|    0.824071|    0.012130|
|         716|   -4.759515|   -7.418770|    0.824070|    0.012130|
|         717|   -4.769065|   -7.421531|    0.824068|    0.012130|
|         718|   -4.784656|   -7.424395|    0.824067|    0.012130|
|         719|   -4.804491|   -7.427379|    0.824066|    0.012130|
|         720|   -4.825473|   -7.430504|    0.824064|    0.012130|
|         721|   -4.845003|   -7.433784|    0.824063|    0.012130|
|         722|   -4.862240|   -7.437213|    0.824062|    0.012130|
|         723|   -4.878011|   -7.440764|    0.824060|    0.012129|
|         724|   -4.893682|   -7.444400|    0.824059|    0.012129|
|         725|   -4.910086|   -7.448088|    0.824057|    0.012129|
|         726|   -4.927175|   -7.451797|    0.824056|    0.012128|
|         727|   -4.944248|   -7.455506|    0.824055|    0.012128|
|         728|   -4.960368|   -7.459204|    0.824053|    0.012127|
|         729|   -4.974693|   -7.462887|    0.824052|    0.012126|
|         730|   -4.986656|   -7.466555|    0.824051|    0.012126|
|         731|   -4.996077|   -7.470211|    0.824050|    0.012125|
|         732|   -5.003228|   -7.473857|    0.824048|    0.012124|
|         733|   -5.008815|   -7.477494|    0.824047|    0.012123|
|         734|   -5.013826|   -7.481125|    0.824046|    0.012123|
|         735|   -5.019291|   -7.484746|    0.824044|    0.012122|
|         736|   -5.026049|   -7.488352|    0.824043|    0.012121|
|         737|   -5.034611|   -7.491937|    0.824042|    0.012120|
|         738|   -5.045103|   -7.495496|    0.824041|    0.012119|
|         739|   -5.057268|   -7.498997|    0.824040|    0.012118|
|         740|   -5.070510|   -7.502444|    0.824038|    0.012117|
|         741|   -5.083977|   -7.505838|    0.824037|    0.012116|
|         742|   -5.096725|   -7.509155|    0.824036|    0.012115|
|         743|   -5.107939|   -7.512391|    0.824035|    0.012114|
|         744|   -5.117163|   -7.515553|    0.824034|    0.012113|
|         745|   -5.124437|   -7.518646|    0.824032|    0.012112|
|         746|   -5.130263|   -7.521675|    0.824031|    0.012111|
|         747|   -5.135413|   -7.524641|    0.824030|    0.012110|
|         748|   -5.140691|   -7.527537|    0.824028|    0.012109|
|         749|   -5.146731|   -7.530355|    0.824027|    0.012108|
|         750|   -5.153883|   -7.533085|    0.824026|    0.012106|
|         751|   -5.162194|   -7.535720|    0.824024|    0.012105|
|         752|   -5.171446|   -7.538251|    0.824022|    0.012104|
|         753|   -5.181240|   -7.540673|    0.824021|    0.012103|
|         754|   -5.191097|   -7.542983|    0.824019|    0.012102|
|         755|   -5.200565|   -7.545183|    0.824017|    0.012102|
|         756|   -5.209305|   -7.547267|    0.824015|    0.012101|
|         757|   -5.217140|   -7.549242|    0.824013|    0.012100|
|         758|   -5.224061|   -7.551118|    0.824011|    0.012099|
|         759|   -5.230185|   -7.552915|    0.824009|    0.012098|
|         760|   -5.235696|   -7.554658|    0.824007|    0.012097|
|         761|   -5.240787|   -7.556384|    0.824004|    0.012096|
|         762|   -5.245609|   -7.558124|    0.824002|    0.012096|
|         763|   -5.250256|   -7.559921|    0.823999|    0.012095|
|         764|   -5.254762|   -7.561820|    0.823997|    0.012094|
|         765|   -5.259118|   -7.563871|    0.823994|    0.012094|
|         766|   -5.263287|   -7.566125|    0.823992|    0.012093|
|         767|   -5.267231|   -7.568634|    0.823989|    0.012093|
|         768|   -5.270915|   -7.571444|    0.823987|    0.012092|
|         769|   -5.274323|   -7.574595|    0.823984|    0.012092|
|         770|   -5.277451|   -7.578120|    0.823982|    0.012092|
|         771|   -5.280307|   -7.582047|    0.823979|    0.012091|
|         772|   -5.282905|   -7.586389|    0.823977|    0.012091|
|         773|   -5.285257|   -7.591151|    0.823975|    0.012091|
|         774|   -5.287375|   -7.596321|    0.823973|    0.012091|
|         775|   -5.289268|   -7.601872|    0.823971|    0.012091|
|         776|   -5.290942|   -7.607762|    0.823969|    0.012091|
|         777|   -5.292401|   -7.613939|    0.823968|    0.012091|
|         778|   -5.293655|   -7.620338|    0.823966|    0.012091|
|         779|   -5.294713|   -7.626885|    0.823965|    0.012091|
|         780|   -5.295587|   -7.633499|    0.823964|    0.012091|
|         781|   -5.296297|   -7.640094|    0.823964|    0.012092|
|         782|   -5.296860|   -7.646582|    0.823963|    0.012092|
|         783|   -5.297300|   -7.652880|    0.823963|    0.012092|
|         784|   -5.297641|   -7.658912|    0.823963|    0.012093|
|         785|   -5.297906|   -7.664615|    0.823964|    0.012093|
|         786|   -5.298120|   -7.669937|    0.823964|    0.012094|
|         787|   -5.298308|   -7.674849|    0.823965|    0.012095|
|         788|   -5.298494|   -7.679339|    0.823966|    0.012095|
|         789|   -5.298701|   -7.683408|    0.823967|    0.012096|
|         790|   -5.298951|   -7.687077|    0.823969|    0.012097|
|         791|   -5.299265|   -7.690392|    0.823970|    0.012098|
|         792|   -5.299661|   -7.693412|    0.823972|    0.012099|
|         793|   -5.300154|   -7.696203|    0.823974|    0.012099|
|         794|   -5.300760|   -7.698831|    0.823976|    0.012100|
|         795|   -5.301488|   -7.701361|    0.823978|    0.012101|
|         796|   -5.302345|   -7.703850|    0.823980|    0.012102|
|         797|   -5.303336|   -7.706337|    0.823983|    0.012103|
|         798|   -5.304463|   -7.708847|    0.823985|    0.012104|
|         799|   -5.305722|   -7.711405|    0.823987|    0.012105|
|         800|   -5.307107|   -7.714014|    0.823990|    0.012106|
|         801|   -5.308611|   -7.716661|    0.823992|    0.012108|
+-----------------------------------------------------------------------+
|Fixed CL Mode                           |Value                         |
+-----------------------------------------------------------------------+
|Current CL                              |0.823992                      |
|Target CL                               |0.824                         |
|Previous AOA                            |2.78584                       |
|Changed AoA by                          |5.06809e-05                   |
+-----------------------------------------------------------------------+
+----------------------------------------------------------------+
|  Inner_Iter|    rms[Rho]|     rms[nu]|          CL|          CD|
+----------------------------------------------------------------+
|         802|   -4.483526|   -7.715253|    0.823995|    0.012109|
|         803|   -4.847715|   -7.719900|    0.823997|    0.012110|
|         804|   -5.050150|   -7.723017|    0.824000|    0.012111|
|         805|   -5.106332|   -7.725664|    0.824002|    0.012112|
|         806|   -5.140082|   -7.727961|    0.824004|    0.012113|
|         807|   -5.178318|   -7.729889|    0.824007|    0.012114|
|         808|   -5.217504|   -7.731406|    0.824009|    0.012114|
|         809|   -5.249227|   -7.732469|    0.824011|    0.012115|
|         810|   -5.269607|   -7.733038|    0.824013|    0.012116|
|         811|   -5.280860|   -7.733112|    0.824015|    0.012117|
|         812|   -5.286747|   -7.732665|    0.824017|    0.012118|
|         813|   -5.289653|   -7.731697|    0.824019|    0.012119|
|         814|   -5.290881|   -7.730238|    0.824020|    0.012120|
|         815|   -5.291492|   -7.728339|    0.824022|    0.012120|
|         816|   -5.292417|   -7.726067|    0.824023|    0.012121|
|         817|   -5.294151|   -7.723503|    0.824024|    0.012122|
|         818|   -5.296612|   -7.720741|    0.824025|    0.012123|
|         819|   -5.299297|   -7.717878|    0.824026|    0.012123|
|         820|   -5.301632|   -7.715017|    0.824027|    0.012124|
|         821|   -5.303264|   -7.712253|    0.824027|    0.012124|
|         822|   -5.304153|   -7.709680|    0.824028|    0.012125|
|         823|   -5.304467|   -7.707378|    0.824028|    0.012125|
|         824|   -5.304411|   -7.705420|    0.824028|    0.012126|
|         825|   -5.304125|   -7.703866|    0.824028|    0.012126|
|         826|   -5.303656|   -7.702768|    0.824028|    0.012126|
|         827|   -5.302998|   -7.702164|    0.824027|    0.012127|
|         828|   -5.302132|   -7.702083|    0.824027|    0.012127|
|         829|   -5.301043|   -7.702541|    0.824026|    0.012127|
|         830|   -5.299730|   -7.703543|    0.824025|    0.012127|
|         831|   -5.298206|   -7.705085|    0.824024|    0.012127|
|         832|   -5.296507|   -7.707151|    0.824023|    0.012128|
|         833|   -5.294685|   -7.709715|    0.824022|    0.012128|
|         834|   -5.292812|   -7.712741|    0.824021|    0.012128|
|         835|   -5.290962|   -7.716184|    0.824020|    0.012128|
|         836|   -5.289207|   -7.719991|    0.824018|    0.012127|
|         837|   -5.287600|   -7.724098|    0.824017|    0.012127|
|         838|   -5.286178|   -7.728436|    0.824015|    0.012127|
|         839|   -5.284956|   -7.732929|    0.824014|    0.012127|
|         840|   -5.283937|   -7.737498|    0.824012|    0.012127|
|         841|   -5.283114|   -7.742057|    0.824011|    0.012126|
|         842|   -5.282480|   -7.746528|    0.824009|    0.012126|
|         843|   -5.282031|   -7.750832|    0.824008|    0.012126|
|         844|   -5.281774|   -7.754899|    0.824007|    0.012125|
|         845|   -5.281726|   -7.758666|    0.824005|    0.012125|
|         846|   -5.281912|   -7.762084|    0.824004|    0.012125|
|         847|   -5.282362|   -7.765119|    0.824003|    0.012124|
|         848|   -5.283102|   -7.767755|    0.824001|    0.012124|
|         849|   -5.284151|   -7.769994|    0.824000|    0.012123|
|         850|   -5.285521|   -7.771854|    0.823999|    0.012123|
|         851|   -5.287212|   -7.773371|    0.823998|    0.012122|
|         852|   -5.289218|   -7.774595|    0.823998|    0.012122|
|         853|   -5.291527|   -7.775588|    0.823997|    0.012121|
|         854|   -5.294124|   -7.776418|    0.823996|    0.012121|
|         855|   -5.296993|   -7.777161|    0.823996|    0.012120|
|         856|   -5.300120|   -7.777890|    0.823996|    0.012120|
|         857|   -5.303491|   -7.778677|    0.823995|    0.012119|
|         858|   -5.307092|   -7.779590|    0.823995|    0.012119|
|         859|   -5.310908|   -7.780687|    0.823995|    0.012118|
|         860|   -5.314925|   -7.782016|    0.823996|    0.012118|
|         861|   -5.319121|   -7.783616|    0.823996|    0.012117|
|         862|   -5.323474|   -7.785513|    0.823996|    0.012117|
|         863|   -5.327955|   -7.787721|    0.823997|    0.012116|
|         864|   -5.332533|   -7.790243|    0.823998|    0.012116|
|         865|   -5.337171|   -7.793069|    0.823998|    0.012115|
|         866|   -5.341828|   -7.796180|    0.823999|    0.012115|
|         867|   -5.346462|   -7.799544|    0.824000|    0.012114|
|         868|   -5.351027|   -7.803121|    0.824001|    0.012114|
|         869|   -5.355476|   -7.806862|    0.824002|    0.012114|
|         870|   -5.359761|   -7.810715|    0.824003|    0.012113|
|         871|   -5.363834|   -7.814620|    0.824004|    0.012113|
|         872|   -5.367648|   -7.818519|    0.824005|    0.012113|
|         873|   -5.371157|   -7.822352|    0.824007|    0.012112|
|         874|   -5.374319|   -7.826064|    0.824008|    0.012112|
|         875|   -5.377096|   -7.829606|    0.824009|    0.012112|
|         876|   -5.379455|   -7.832937|    0.824010|    0.012111|
|         877|   -5.381369|   -7.836023|    0.824011|    0.012111|
|         878|   -5.382821|   -7.838844|    0.824013|    0.012111|
|         879|   -5.383799|   -7.841391|    0.824014|    0.012111|
|         880|   -5.384300|   -7.843665|    0.824015|    0.012110|
|         881|   -5.384331|   -7.845677|    0.824016|    0.012110|
|         882|   -5.383908|   -7.847447|    0.824017|    0.012110|
|         883|   -5.383051|   -7.849002|    0.824018|    0.012110|
|         884|   -5.381792|   -7.850373|    0.824019|    0.012110|
|         885|   -5.380165|   -7.851591|    0.824020|    0.012109|
|         886|   -5.378212|   -7.852689|    0.824021|    0.012109|
|         887|   -5.375976|   -7.853697|    0.824022|    0.012109|
|         888|   -5.373505|   -7.854641|    0.824023|    0.012109|
|         889|   -5.370848|   -7.855541|    0.824024|    0.012109|
|         890|   -5.368052|   -7.856411|    0.824025|    0.012109|
|         891|   -5.365167|   -7.857260|    0.824026|    0.012109|
|         892|   -5.362239|   -7.858090|    0.824027|    0.012109|
|         893|   -5.359312|   -7.858895|    0.824027|    0.012109|
|         894|   -5.356430|   -7.859667|    0.824028|    0.012109|
|         895|   -5.353632|   -7.860391|    0.824029|    0.012109|
|         896|   -5.350953|   -7.861051|    0.824030|    0.012109|
|         897|   -5.348428|   -7.861629|    0.824030|    0.012109|
|         898|   -5.346085|   -7.862106|    0.824031|    0.012110|
|         899|   -5.343952|   -7.862462|    0.824032|    0.012110|
|         900|   -5.342053|   -7.862683|    0.824032|    0.012110|
|         901|   -5.340409|   -7.862754|    0.824033|    0.012108|
+-----------------------------------------------------------------------+
|Fixed CL Mode                           |Value                         |
+-----------------------------------------------------------------------+
|Current CL                              |0.824033                      |
|Target CL                               |0.824                         |
|Previous AOA                            |2.78589                       |
[...]
|        5298|   -6.041204|   -7.918331|    0.824239|    0.012120|
|        5299|   -6.047833|   -7.922312|    0.824240|    0.012120|
|        5300|   -6.054109|   -7.926303|    0.824240|    0.012120|
|        5301|   -6.059994|   -7.930318|    0.824240|    0.012120|
|        5302|   -6.065460|   -7.934374|    0.824240|    0.012120|
|        5303|   -6.070489|   -7.938483|    0.824240|    0.012120|
|        5304|   -6.075075|   -7.942654|    0.824240|    0.012120|
|        5305|   -6.079221|   -7.946896|    0.824240|    0.012120|
|        5306|   -6.082941|   -7.951216|    0.824240|    0.012120|
|        5307|   -6.086259|   -7.955618|    0.824240|    0.012120|
|        5308|   -6.089209|   -7.960106|    0.824240|    0.012120|
|        5309|   -6.091830|   -7.964684|    0.824241|    0.012120|
|        5310|   -6.094168|   -7.969354|    0.824241|    0.012120|
|        5311|   -6.096272|   -7.974118|    0.824241|    0.012120|
|        5312|   -6.098195|   -7.978981|    0.824241|    0.012120|
|        5313|   -6.099988|   -7.983943|    0.824241|    0.012120|
|        5314|   -6.101704|   -7.989008|    0.824241|    0.012120|
|        5315|   -6.103392|   -7.994181|    0.824241|    0.012120|
|        5316|   -6.105100|   -7.999463|    0.824241|    0.012120|
|        5317|   -6.106869|   -8.004860|    0.824241|    0.012120|
|        5318|   -6.108737|   -8.010375|    0.824242|    0.012120|
|        5319|   -6.110736|   -8.016011|    0.824242|    0.012120|
|        5320|   -6.112892|   -8.021771|    0.824242|    0.012120|
|        5321|   -6.115227|   -8.027658|    0.824242|    0.012120|
|        5322|   -6.117753|   -8.033672|    0.824242|    0.012120|
|        5323|   -6.120479|   -8.039812|    0.824242|    0.012120|
|        5324|   -6.123404|   -8.046078|    0.824242|    0.012120|
|        5325|   -6.126523|   -8.052465|    0.824242|    0.012120|
|        5326|   -6.129825|   -8.058969|    0.824243|    0.012120|
|        5327|   -6.133293|   -8.065582|    0.824243|    0.012120|
|        5328|   -6.136903|   -8.072298|    0.824243|    0.012121|
|        5329|   -6.140628|   -8.079105|    0.824243|    0.012121|
|        5330|   -6.144435|   -8.085994|    0.824243|    0.012121|
|        5331|   -6.148289|   -8.092951|    0.824243|    0.012121|
|        5332|   -6.152150|   -8.099963|    0.824243|    0.012121|
|        5333|   -6.155978|   -8.107015|    0.824244|    0.012121|
|        5334|   -6.159734|   -8.114092|    0.824244|    0.012121|
|        5335|   -6.163376|   -8.121181|    0.824244|    0.012121|
|        5336|   -6.166870|   -8.128266|    0.824244|    0.012121|
|        5337|   -6.170181|   -8.135332|    0.824244|    0.012121|
|        5338|   -6.173282|   -8.142366|    0.824244|    0.012121|
|        5339|   -6.176151|   -8.149357|    0.824244|    0.012121|
|        5340|   -6.178773|   -8.156294|    0.824244|    0.012122|
|        5341|   -6.181143|   -8.163168|    0.824244|    0.012122|
|        5342|   -6.183261|   -8.169975|    0.824244|    0.012122|
|        5343|   -6.185135|   -8.176710|    0.824245|    0.012122|
|        5344|   -6.186781|   -8.183374|    0.824245|    0.012122|
|        5345|   -6.188228|   -8.189967|    0.824245|    0.012122|
|        5346|   -6.189506|   -8.196493|    0.824245|    0.012122|
|        5347|   -6.190652|   -8.202955|    0.824245|    0.012122|
|        5348|   -6.191705|   -8.209359|    0.824245|    0.012122|
|        5349|   -6.192707|   -8.215711|    0.824245|    0.012122|
|        5350|   -6.193701|   -8.222016|    0.824245|    0.012122|
|        5351|   -6.194732|   -8.228281|    0.824245|    0.012122|
|        5352|   -6.195843|   -8.234514|    0.824245|    0.012122|
|        5353|   -6.197074|   -8.240722|    0.824245|    0.012122|
|        5354|   -6.198463|   -8.246911|    0.824245|    0.012122|
|        5355|   -6.200047|   -8.253090|    0.824245|    0.012122|
|        5356|   -6.201856|   -8.259264|    0.824245|    0.012122|
|        5357|   -6.203918|   -8.265442|    0.824245|    0.012122|
|        5358|   -6.206255|   -8.271627|    0.824245|    0.012122|
|        5359|   -6.208885|   -8.277825|    0.824245|    0.012122|
|        5360|   -6.211823|   -8.284036|    0.824245|    0.012122|
|        5361|   -6.215075|   -8.290258|    0.824245|    0.012122|
|        5362|   -6.218646|   -8.296498|    0.824245|    0.012122|
|        5363|   -6.222536|   -8.302758|    0.824245|    0.012122|
|        5364|   -6.226738|   -8.309040|    0.824245|    0.012122|
|        5365|   -6.231241|   -8.315346|    0.824245|    0.012122|
|        5366|   -6.236028|   -8.321674|    0.824245|    0.012122|
|        5367|   -6.241078|   -8.328025|    0.824245|    0.012122|
|        5368|   -6.246366|   -8.334396|    0.824245|    0.012122|
|        5369|   -6.251862|   -8.340782|    0.824245|    0.012122|
|        5370|   -6.257531|   -8.347180|    0.824244|    0.012122|
|        5371|   -6.263335|   -8.353585|    0.824244|    0.012122|
|        5372|   -6.269232|   -8.359992|    0.824244|    0.012122|
|        5373|   -6.275178|   -8.366395|    0.824244|    0.012122|
|        5374|   -6.281123|   -8.372790|    0.824244|    0.012122|
|        5375|   -6.287021|   -8.379171|    0.824244|    0.012122|
|        5376|   -6.292821|   -8.385535|    0.824244|    0.012122|
|        5377|   -6.298476|   -8.391875|    0.824244|    0.012122|
|        5378|   -6.303938|   -8.398193|    0.824244|    0.012122|
|        5379|   -6.309163|   -8.404484|    0.824244|    0.012122|
|        5380|   -6.314112|   -8.410746|    0.824244|    0.012122|
|        5381|   -6.318750|   -8.416973|    0.824244|    0.012121|
|        5382|   -6.323048|   -8.423162|    0.824244|    0.012121|
|        5383|   -6.326985|   -8.429311|    0.824244|    0.012121|
|        5384|   -6.330546|   -8.435415|    0.824244|    0.012121|
|        5385|   -6.333723|   -8.441470|    0.824244|    0.012121|
|        5386|   -6.336517|   -8.447470|    0.824244|    0.012121|
|        5387|   -6.338934|   -8.453408|    0.824244|    0.012121|
|        5388|   -6.340987|   -8.459275|    0.824244|    0.012121|
|        5389|   -6.342693|   -8.465061|    0.824244|    0.012121|
|        5390|   -6.344074|   -8.470752|    0.824244|    0.012121|
|        5391|   -6.345156|   -8.476333|    0.824244|    0.012120|
|        5392|   -6.345964|   -8.481787|    0.824244|    0.012120|
|        5393|   -6.346527|   -8.487091|    0.824244|    0.012120|
|        5394|   -6.346871|   -8.492223|    0.824244|    0.012120|
|        5395|   -6.347024|   -8.497157|    0.824244|    0.012120|
|        5396|   -6.347011|   -8.501868|    0.824244|    0.012120|
|        5397|   -6.346854|   -8.506327|    0.824244|    0.012120|
|        5398|   -6.346574|   -8.510506|    0.824244|    0.012120|
|        5399|   -6.346190|   -8.514379|    0.824244|    0.012120|
|        5400|   -6.345718|   -8.517918|    0.824244|    0.012120|
|        5401|   -6.345171|   -8.521100|    0.824245|    0.012119|
|        5402|   -6.344559|   -8.523905|    0.824245|    0.012119|
|        5403|   -6.343893|   -8.526317|    0.824245|    0.012119|
|        5404|   -6.343178|   -8.528325|    0.824245|    0.012119|
|        5405|   -6.342421|   -8.529924|    0.824245|    0.012119|
|        5406|   -6.341626|   -8.531116|    0.824245|    0.012119|
|        5407|   -6.340798|   -8.531908|    0.824245|    0.012119|
|        5408|   -6.339937|   -8.532314|    0.824245|    0.012119|
|        5409|   -6.339049|   -8.532355|    0.824246|    0.012119|
|        5410|   -6.338134|   -8.532054|    0.824246|    0.012119|
|        5411|   -6.337195|   -8.531442|    0.824246|    0.012119|
|        5412|   -6.336235|   -8.530549|    0.824246|    0.012118|
|        5413|   -6.335258|   -8.529407|    0.824246|    0.012118|
|        5414|   -6.334266|   -8.528051|    0.824246|    0.012118|
|        5415|   -6.333264|   -8.526515|    0.824246|    0.012118|
|        5416|   -6.332257|   -8.524831|    0.824246|    0.012118|
|        5417|   -6.331249|   -8.523030|    0.824247|    0.012118|
|        5418|   -6.330246|   -8.521143|    0.824247|    0.012118|
|        5419|   -6.329255|   -8.519196|    0.824247|    0.012118|
|        5420|   -6.328284|   -8.517213|    0.824247|    0.012118|
|        5421|   -6.327341|   -8.515216|    0.824247|    0.012118|
|        5422|   -6.326434|   -8.513221|    0.824247|    0.012118|
|        5423|   -6.325573|   -8.511246|    0.824247|    0.012118|
|        5424|   -6.324768|   -8.509301|    0.824247|    0.012118|
|        5425|   -6.324031|   -8.507397|    0.824247|    0.012118|
|        5426|   -6.323373|   -8.505541|    0.824247|    0.012118|
|        5427|   -6.322807|   -8.503739|    0.824247|    0.012118|
|        5428|   -6.322346|   -8.501996|    0.824247|    0.012118|
|        5429|   -6.322004|   -8.500314|    0.824248|    0.012118|
|        5430|   -6.321795|   -8.498695|    0.824248|    0.012118|
|        5431|   -6.321733|   -8.497141|    0.824248|    0.012118|
|        5432|   -6.321831|   -8.495653|    0.824248|    0.012118|
|        5433|   -6.322105|   -8.494233|    0.824248|    0.012118|
|        5434|   -6.322571|   -8.492883|    0.824248|    0.012118|
|        5435|   -6.323241|   -8.491603|    0.824248|    0.012118|
|        5436|   -6.324130|   -8.490396|    0.824248|    0.012118|
|        5437|   -6.325249|   -8.489262|    0.824248|    0.012118|
|        5438|   -6.326610|   -8.488204|    0.824248|    0.012118|
|        5439|   -6.328223|   -8.487226|    0.824248|    0.012118|
|        5440|   -6.330097|   -8.486328|    0.824248|    0.012118|
|        5441|   -6.332238|   -8.485515|    0.824248|    0.012118|
|        5442|   -6.334652|   -8.484790|    0.824248|    0.012118|
|        5443|   -6.337341|   -8.484155|    0.824248|    0.012118|
|        5444|   -6.340306|   -8.483612|    0.824248|    0.012118|
|        5445|   -6.343542|   -8.483165|    0.824248|    0.012118|
|        5446|   -6.347045|   -8.482814|    0.824248|    0.012118|
|        5447|   -6.350806|   -8.482562|    0.824247|    0.012118|
|        5448|   -6.354811|   -8.482408|    0.824247|    0.012118|
|        5449|   -6.359047|   -8.482353|    0.824247|    0.012119|
|        5450|   -6.363492|   -8.482397|    0.824247|    0.012119|
|        5451|   -6.368124|   -8.482538|    0.824247|    0.012119|
|        5452|   -6.372916|   -8.482776|    0.824247|    0.012119|
|        5453|   -6.377837|   -8.483108|    0.824247|    0.012119|
|        5454|   -6.382853|   -8.483533|    0.824247|    0.012119|
|        5455|   -6.387927|   -8.484046|    0.824247|    0.012119|
|        5456|   -6.393018|   -8.484644|    0.824247|    0.012119|
|        5457|   -6.398082|   -8.485323|    0.824247|    0.012119|
|        5458|   -6.403074|   -8.486080|    0.824247|    0.012119|
|        5459|   -6.407948|   -8.486908|    0.824246|    0.012119|
|        5460|   -6.412658|   -8.487804|    0.824246|    0.012119|
|        5461|   -6.417156|   -8.488762|    0.824246|    0.012119|
|        5462|   -6.421399|   -8.489777|    0.824246|    0.012120|
|        5463|   -6.425346|   -8.490844|    0.824246|    0.012120|
|        5464|   -6.428958|   -8.491958|    0.824246|    0.012120|
|        5465|   -6.432204|   -8.493113|    0.824246|    0.012120|
|        5466|   -6.435058|   -8.494303|    0.824245|    0.012120|
|        5467|   -6.437499|   -8.495524|    0.824245|    0.012120|
|        5468|   -6.439516|   -8.496768|    0.824245|    0.012120|
|        5469|   -6.441105|   -8.498030|    0.824245|    0.012120|
|        5470|   -6.442270|   -8.499303|    0.824245|    0.012120|
|        5471|   -6.443022|   -8.500582|    0.824245|    0.012120|
|        5472|   -6.443380|   -8.501859|    0.824244|    0.012120|
|        5473|   -6.443368|   -8.503127|    0.824244|    0.012120|
|        5474|   -6.443017|   -8.504380|    0.824244|    0.012120|
|        5475|   -6.442361|   -8.505610|    0.824244|    0.012120|
|        5476|   -6.441439|   -8.506811|    0.824244|    0.012120|
|        5477|   -6.440292|   -8.507974|    0.824243|    0.012120|
|        5478|   -6.438959|   -8.509092|    0.824243|    0.012120|
|        5479|   -6.437485|   -8.510159|    0.824243|    0.012120|
|        5480|   -6.435909|   -8.511165|    0.824243|    0.012120|
|        5481|   -6.434273|   -8.512105|    0.824243|    0.012120|
|        5482|   -6.432615|   -8.512972|    0.824243|    0.012120|
|        5483|   -6.430971|   -8.513758|    0.824242|    0.012120|
|        5484|   -6.429374|   -8.514459|    0.824242|    0.012120|
|        5485|   -6.427856|   -8.515068|    0.824242|    0.012120|
|        5486|   -6.426444|   -8.515581|    0.824242|    0.012120|
|        5487|   -6.425163|   -8.515992|    0.824242|    0.012120|
|        5488|   -6.424036|   -8.516299|    0.824241|    0.012120|
|        5489|   -6.423082|   -8.516498|    0.824241|    0.012120|
|        5490|   -6.422317|   -8.516586|    0.824241|    0.012120|
|        5491|   -6.421756|   -8.516563|    0.824241|    0.012120|
|        5492|   -6.421408|   -8.516428|    0.824241|    0.012120|
|        5493|   -6.421285|   -8.516180|    0.824241|    0.012120|
|        5494|   -6.421392|   -8.515820|    0.824241|    0.012120|
|        5495|   -6.421734|   -8.515349|    0.824240|    0.012120|
|        5496|   -6.422316|   -8.514770|    0.824240|    0.012120|
|        5497|   -6.423137|   -8.514085|    0.824240|    0.012120|
|        5498|   -6.424199|   -8.513296|    0.824240|    0.012120|
|        5499|   -6.425500|   -8.512406|    0.824240|    0.012106|
+-----------------------------------------------------------------------+
|Fixed CL Mode (Finite Difference)       |Value                         |
+-----------------------------------------------------------------------+
|Delta CL / Delta AoA                    |0.240322                      |
|Delta CD / Delta CL                     |0.0198939                     |
|Delta CMz / Delta CL                    |0.00758774                    |
+-----------------------------------------------------------------------+
Writing Flow Meta-Data file: flow.meta

----------------------------- Solver Exit -------------------------------

Maximum number of iterations reached (ITER = 5500) before convergence.
+-----------------------------------------------------------------------+
|      Convergence Field     |     Value    |   Criterion  |  Converged |
+-----------------------------------------------------------------------+
|                    rms[Rho]|       -6.4255|         < -12|          No|
+-----------------------------------------------------------------------+
-------------------------------------------------------------------------

--------------------------- Finalizing Solver ---------------------------
Deleted CNumerics container.
Deleted CIntegration container.
Deleted CSolver container.
Deleted CIteration container.
Deleted CInterface container.
Deleted CGeometry container.
Deleted CFreeFormDefBox class.
Deleted CSurfaceMovement class.
Deleted CVolumetricMovement class.
Deleted CConfig container.
Deleted nInst container.
Deleted COutput class.
-------------------------------------------------------------------------

------------------------- Exit Success (SU2_CFD) ------------------------


-------------------------------------------------------------------------
|    ___ _   _ ___                                                      |
|   / __| | | |_  )   Release 8.0.0 "Harrier"                           |
|   \__ \ |_| |/ /                                                      |
|   |___/\___//___|   Suite (Solution Exporting Code)                   |
|                                                                       |
-------------------------------------------------------------------------
| SU2 Project Website: https://su2code.github.io                        |
|                                                                       |
| The SU2 Project is maintained by the SU2 Foundation                   |
| (http://su2foundation.org)                                            |
-------------------------------------------------------------------------
| Copyright 2012-2023, SU2 Contributors                                 |
|                                                                       |
| SU2 is free software; you can redistribute it and/or                  |
| modify it under the terms of the GNU Lesser General Public            |
| License as published by the Free Software Foundation; either          |
| version 2.1 of the License, or (at your option) any later version.    |
|                                                                       |
| SU2 is distributed in the hope that it will be useful,                |
| but WITHOUT ANY WARRANTY; without even the implied warranty of        |
| MERCHANTABILITY or FITNESS FOR A PARTICULAR PURPOSE. See the GNU      |
| Lesser General Public License for more details.                       |
|                                                                       |
| You should have received a copy of the GNU Lesser General Public      |
| License along with SU2. If not, see <http://www.gnu.org/licenses/>.   |
-------------------------------------------------------------------------

----------------- Physical Case Definition ( Zone 0 ) -------------------
Input mesh file name: mesh_RAE2822_turb_deform.su2

-------------------- Output Information ( Zone 0 ) ----------------------
The tabular file format is CSV (.csv).
Flow variables file name: flow.

------------- Config File Boundary Information ( Zone 0 ) ---------------
+-----------------------------------------------------------------------+
|                        Marker Type|                        Marker Name|
+-----------------------------------------------------------------------+
|                          Far-field|                           FARFIELD|
+-----------------------------------------------------------------------+
|                     Heat flux wall|                            AIRFOIL|
+-----------------------------------------------------------------------+
Two dimensional problem.
13937 grid points before partitioning.
22842 volume elements before partitioning.
2 surface markers.
192 boundary elements in index 0 (Marker = AIRFOIL).
40 boundary elements in index 1 (Marker = FARFIELD).
Executing the partitioning functions.
Building the graph adjacency structure.
Calling ParMETIS... graph partitioning complete (831 edge cuts).
Distributing ParMETIS coloring.
Rebalancing vertices.
Rebalancing volume element connectivity.
Rebalancing markers and surface elements.
14875 vertices including ghost points. 
23674 interior elements including halo cells. 
18780 triangles.
4894 quadrilaterals.
Establishing MPI communication patterns.
Identify vertices.
Storing a mapping from global to local point index.

------------------------- Solution Postprocessing -----------------------
Reading and storing the solution from restart_flow.
Volume output fields: COORDINATES, SOLUTION
  Info: Ignoring the following screen output fields:
  RMS_DENSITY, RMS_NU_TILDE, LIFT, DRAG
Screen output fields: INNER_ITER
  Info: Ignoring the following history output groups:
  RMS_RES, AERO_COEFF
History output group(s): ITER
Warning: No (valid) fields chosen for convergence monitoring. Convergence monitoring inactive.
Warning: No (valid) fields chosen for time convergence monitoring. Time convergence monitoring inactive.
|Paraview                           |flow.vtu                           |
|Paraview surface                   |surface_flow.vtu                   |
|CSV file                           |surface_flow.csv                   |

------------------------- Finalize Solver -------------------------
Deleted CGeometry container.
Deleted CSolver class.
Deleted CConfig container.
Deleted COutput class.

Completed in 0.017540 seconds on 6 cores.

------------------------- Exit Success (SU2_SOL) ------------------------

