
-------------------------------------------------------------------------
|    ___ _   _ ___                                                      |
|   / __| | | |_  )   Release 8.0.0 "Harrier"                           |
|   \__ \ |_| |/ /                                                      |
|   |___/\___//___|   Suite (Computational Fluid Dynamics Code)         |
|                                                                       |
-------------------------------------------------------------------------
| SU2 Project Website: https://su2code.github.io                        |
|                                                                       |
| The SU2 Project is maintained by the SU2 Foundation                   |
| (http://su2foundation.org)                                            |
-------------------------------------------------------------------------
| Copyright 2012-2023, SU2 Contributors                                 |
|                                                                       |
| SU2 is free software; you can redistribute it and/or                  |
| modify it under the terms of the GNU Lesser General Public            |
| License as published by the Free Software Foundation; either          |
| version 2.1 of the License, or (at your option) any later version.    |
|                                                                       |
| SU2 is distributed in the hope that it will be useful,                |
| but WITHOUT ANY WARRANTY; without even the implied warranty of        |
| MERCHANTABILITY or FITNESS FOR A PARTICULAR PURPOSE. See the GNU      |
| Lesser General Public License for more details.                       |
|                                                                       |
| You should have received a copy of the GNU Lesser General Public      |
| License along with SU2. If not, see <http://www.gnu.org/licenses/>.   |
-------------------------------------------------------------------------

Parsing config file for zone 0

----------------- Physical Case Definition ( Zone 0 ) -------------------
Compressible RANS equations.
Turbulence model: Spalart-Allmaras-noft2
Hybrid RANS/LES: No Hybrid RANS/LES
Mach number: 0.734.
Angle of attack (AoA): 2.31 deg, and angle of sideslip (AoS): 0 deg.
Reynolds number: 6.5e+06. Reference length 1.
Fixed CL mode, target value: 0.824.
Reading and writing binary SU2 native restart files.
Read flow solution from: solution_flow.dat.
Dimensional simulation.
The reference area is 1 m^2.
The semi-span will be computed using the max y(3D) value.
The reference length is 1 m.
Reference origin for moment evaluation is (0.25, 0, 0).
Surface(s) where the force coefficients are evaluated: AIRFOIL.

Surface(s) plotted in the output file: AIRFOIL.
Surface(s) affected by the design variables: AIRFOIL.
Input mesh file name: mesh_RAE2822_turb_deform.su2

--------------- Space Numerical Integration ( Zone 0 ) ------------------
Jameson-Schmidt-Turkel scheme (2nd order in space) for the flow inviscid terms.
JST viscous coefficients (2nd & 4th): 0.5, 0.02.
The method includes a grid stretching correction (p = 0.3).
Scalar upwind solver for the turbulence model.
First order integration in space.
Average of gradients with correction (viscous flow terms).
Average of gradients with correction (viscous turbulence terms).
Gradient for viscous and source terms: inverse-distance weighted Least-Squares.

--------------- Time Numerical Integration  ( Zone 0 ) ------------------
Local time stepping (steady state simulation).
Euler implicit method for the flow equations.
FGMRES is used for solving the linear system.
Using a ILU(0) preconditioning.
Convergence criteria of the linear solver: 1e-06.
Max number of linear iterations: 10.
No CFL adaptation.
Courant-Friedrichs-Lewy number:       10
Euler implicit time integration for the turbulence model.

------------------ Convergence Criteria  ( Zone 0 ) ---------------------
Maximum number of solver subiterations: 5500.
Begin convergence monitoring at iteration 10.
Residual minimum value: 1e-12.
Cauchy series min. value: 1e-06.
Number of Cauchy elements: 100.
Begin windowed time average at iteration 0.

-------------------- Output Information ( Zone 0 ) ----------------------
File writing frequency: 
+------------------------------------+
|                     File| Frequency|
+------------------------------------+
|                  RESTART|     10000|
|                 PARAVIEW|     10000|
|         SURFACE_PARAVIEW|     10000|
|              SURFACE_CSV|     10000|
+------------------------------------+
Writing the convergence history file every 1 inner iterations.
Writing the screen convergence history every 1 inner iterations.
The tabular file format is CSV (.csv).
Convergence history file name: history_direct.
Forces breakdown file name: forces_breakdown.dat.
Surface file name: surface_flow.
Volume file name: flow.
Restart file name: restart_flow.dat.

------------- Config File Boundary Information ( Zone 0 ) ---------------
+-----------------------------------------------------------------------+
|                        Marker Type|                        Marker Name|
+-----------------------------------------------------------------------+
|                          Far-field|                           FARFIELD|
+-----------------------------------------------------------------------+
|                     Heat flux wall|                            AIRFOIL|
+-----------------------------------------------------------------------+

-------------------- Output Preprocessing ( Zone 0 ) --------------------

WARNING: SURFACE_PRESSURE_DROP can only be computed for at least 2 surfaces (outlet, inlet, ...)

Screen output fields: INNER_ITER, RMS_DENSITY, RMS_NU_TILDE, LIFT, DRAG
History output group(s): ITER, RMS_RES, AERO_COEFF
Convergence field(s): RMS_DENSITY
Warning: No (valid) fields chosen for time convergence monitoring. Time convergence monitoring inactive.
Volume output fields: COORDINATES, SOLUTION, PRIMITIVE

------------------- Geometry Preprocessing ( Zone 0 ) -------------------
Two dimensional problem.
13937 grid points before partitioning.
22842 volume elements before partitioning.
2 surface markers.
192 boundary elements in index 0 (Marker = AIRFOIL).
40 boundary elements in index 1 (Marker = FARFIELD).
Executing the partitioning functions.
Building the graph adjacency structure.
Calling ParMETIS... graph partitioning complete (831 edge cuts).
Distributing ParMETIS coloring.
Rebalancing vertices.
Rebalancing volume element connectivity.
Rebalancing markers and surface elements.
14875 vertices including ghost points. 
23674 interior elements including halo cells. 
18780 triangles.
4894 quadrilaterals.
Establishing MPI communication patterns.
Setting point connectivity.
Renumbering points (Reverse Cuthill McKee Ordering).
Recomputing point connectivity.
Setting element connectivity.
Checking the numerical grid orientation.
All volume elements are correctly orientend.
All surface elements are correctly orientend.
Identifying edges and vertices.
Setting the control volume structure.
Area of the computational grid: 32209.9.
Searching for the closest normal neighbors to the surfaces.
Storing a mapping from global to local point index.
Compute the surface curvature.
Max K: 188.922. Mean K: 8.09041. Standard deviation K: 25.4823.
Checking for periodicity.
Computing mesh quality statistics for the dual control volumes.
+--------------------------------------------------------------+
|           Mesh Quality Metric|        Minimum|        Maximum|
+--------------------------------------------------------------+
|    Orthogonality Angle (deg.)|        74.8696|        89.9999|
|     CV Face Area Aspect Ratio|        1.00525|        3358.37|
|           CV Sub-Volume Ratio|        1.00047|        1218.05|
+--------------------------------------------------------------+
Finding max control volume width.
Communicating number of neighbors.
Wetted area = 2.02144 m.
Area projection in the x-plane = 0.126221 m, y-plane = 0.995873 m.
Max. coordinate in the x-direction = 1 m, y-direction = 0.0619912 m.
Min. coordinate in the x-direction = 0 m, y-direction = -0.0608111 m.
Computing wall distances.

-------------------- Solver Preprocessing ( Zone 0 ) --------------------
WARNING: AoA in the solution file (2.78004 deg.) +
         AoA offset in mesh file (0 deg.) = 2.78004 deg.
WARNING: SU2 will use the dCD/dCL provided in the direct solution file: 0.0184959.
WARNING: SU2 will use the dCMz/dCL provided in the direct solution file: 0.00989176.
Viscous flow: Computing pressure using the ideal gas law
based on the free-stream temperature and a density computed
from the Reynolds number.
Force coefficients computed using free-stream values.

-- Models:
+------------------------------------------------------------------------------+
|          Viscosity Model|        Conductivity Model|              Fluid Model|
+------------------------------------------------------------------------------+
|               SUTHERLAND|          CONSTANT_PRANDTL|             STANDARD_AIR|
+------------------------------------------------------------------------------+
-- Fluid properties:
+------------------------------------------------------------------------------+
|                  Name|    Dim. value|    Ref. value|      Unit|Non-dim. value|
+------------------------------------------------------------------------------+
|        Ref. Viscosity|     1.716e-05|             1|   N.s/m^2|     1.716e-05|
|      Sutherland Temp.|        273.15|             1|         K|        273.15|
|     Sutherland Const.|         110.4|             1|         K|         110.4|
+------------------------------------------------------------------------------+
|        Prandtl (Lam.)|             -|             -|         -|          0.71|
|       Prandtl (Turb.)|             -|             -|         -|           0.9|
+------------------------------------------------------------------------------+
|          Gas Constant|       287.058|             1|  N.m/kg.K|       287.058|
|      Spec. Heat Ratio|             -|             -|         -|           1.4|
+------------------------------------------------------------------------------+
-- Initial and free-stream conditions:
+------------------------------------------------------------------------------+
|                  Name|    Dim. value|    Ref. value|      Unit|Non-dim. value|
+------------------------------------------------------------------------------+
|       Static Pressure|         38515|             1|        Pa|         38515|
|               Density|      0.465631|             1|    kg/m^3|      0.465631|
|           Temperature|        288.15|             1|         K|        288.15|
|          Total Energy|        237984|             1|   m^2/s^2|        237984|
|            Velocity-X|       249.484|             1|       m/s|       249.484|
|            Velocity-Y|       12.1147|             1|       m/s|       12.1147|
|    Velocity Magnitude|       249.778|             1|       m/s|       249.778|
+------------------------------------------------------------------------------+
|             Viscosity|    1.7893e-05|             1|   N.s/m^2|    1.7893e-05|
|          Conductivity|             -|             1|   W/m^2.K|             -|
|     Turb. Kin. Energy|       233.959|             1|   m^2/s^2|       233.959|
|     Spec. Dissipation|        608834|             1|       1/s|        608834|
+------------------------------------------------------------------------------+
|           Mach Number|             -|             -|         -|         0.734|
|       Reynolds Number|             -|             -|         -|       6.5e+06|
+------------------------------------------------------------------------------+
Initialize Jacobian structure (Navier-Stokes). MG level: 0.
Initialize Jacobian structure (SA model).

------------------- Numerics Preprocessing ( Zone 0 ) -------------------

----------------- Integration Preprocessing ( Zone 0 ) ------------------

------------------- Iteration Preprocessing ( Zone 0 ) ------------------
Euler/Navier-Stokes/RANS fluid iteration.

------------------------------ Begin Solver -----------------------------

Simulation Run using the Single-zone Driver
WARNING: SU2 was not compiled for an AVX-capable architecture. Performance could be better,
         see https://su2code.github.io/docs_v7/Build-SU2-Linux-MacOS/#compiler-optimizations
+----------------------------------------------------------------+
|  Inner_Iter|    rms[Rho]|     rms[nu]|          CL|          CD|
+----------------------------------------------------------------+
|           0|   -4.954860|   -6.190981|    0.823907|    0.012020|
|           1|   -5.013778|   -6.288500|    0.823851|    0.012004|
|           2|   -5.075916|   -6.398208|    0.823823|    0.011995|
|           3|   -5.120269|   -6.516662|    0.823817|    0.011992|
|           4|   -5.149206|   -6.641972|    0.823820|    0.011992|
|           5|   -5.168538|   -6.762050|    0.823826|    0.011993|
|           6|   -5.180427|   -6.844010|    0.823830|    0.011992|
|           7|   -5.185300|   -6.862378|    0.823830|    0.011991|
|           8|   -5.183700|   -6.841209|    0.823827|    0.011988|
|           9|   -5.176442|   -6.815842|    0.823822|    0.011984|
|          10|   -5.164645|   -6.800906|    0.823815|    0.011979|
|          11|   -5.149995|   -6.797542|    0.823809|    0.011974|
|          12|   -5.134576|   -6.801855|    0.823804|    0.011968|
|          13|   -5.120268|   -6.808592|    0.823800|    0.011962|
|          14|   -5.108220|   -6.813196|    0.823798|    0.011956|
|          15|   -5.098711|   -6.813185|    0.823797|    0.011950|
|          16|   -5.091330|   -6.808398|    0.823799|    0.011944|
|          17|   -5.085330|   -6.800062|    0.823802|    0.011938|
|          18|   -5.080008|   -6.789601|    0.823808|    0.011932|
|          19|   -5.074972|   -6.777940|    0.823815|    0.011927|
|          20|   -5.070211|   -6.765425|    0.823824|    0.011922|
|          21|   -5.065976|   -6.752054|    0.823835|    0.011917|
|          22|   -5.062570|   -6.737760|    0.823846|    0.011913|
|          23|   -5.060176|   -6.722627|    0.823857|    0.011910|
|          24|   -5.058780|   -6.706977|    0.823869|    0.011907|
|          25|   -5.058193|   -6.691344|    0.823880|    0.011904|
|          26|   -5.058128|   -6.676395|    0.823890|    0.011903|
|          27|   -5.058292|   -6.662818|    0.823900|    0.011901|
|          28|   -5.058445|   -6.651239|    0.823909|    0.011900|
|          29|   -5.058429|   -6.642154|    0.823917|    0.011900|
|          30|   -5.058161|   -6.635897|    0.823925|    0.011900|
|          31|   -5.057611|   -6.632617|    0.823931|    0.011900|
|          32|   -5.056782|   -6.632285|    0.823937|    0.011901|
|          33|   -5.055699|   -6.634690|    0.823942|    0.011902|
|          34|   -5.054400|   -6.639463|    0.823948|    0.011904|
|          35|   -5.052935|   -6.646096|    0.823953|    0.011905|
|          36|   -5.051357|   -6.653983|    0.823958|    0.011907|
|          37|   -5.049716|   -6.662471|    0.823963|    0.011909|
|          38|   -5.048048|   -6.670926|    0.823969|    0.011911|
|          39|   -5.046381|   -6.678803|    0.823975|    0.011913|
|          40|   -5.044721|   -6.685711|    0.823982|    0.011915|
|          41|   -5.043066|   -6.691447|    0.823990|    0.011917|
|          42|   -5.041413|   -6.695997|    0.823998|    0.011920|
|          43|   -5.039760|   -6.699507|    0.824006|    0.011922|
|          44|   -5.038114|   -6.702231|    0.824015|    0.011924|
|          45|   -5.036486|   -6.704465|    0.824024|    0.011927|
|          46|   -5.034888|   -6.706504|    0.824033|    0.011929|
|          47|   -5.033322|   -6.708599|    0.824042|    0.011932|
|          48|   -5.031780|   -6.710939|    0.824050|    0.011934|
|          49|   -5.030235|   -6.713641|    0.824059|    0.011937|
|          50|   -5.028647|   -6.716753|    0.824066|    0.011939|
|          51|   -5.026965|   -6.720258|    0.824073|    0.011942|
|          52|   -5.025132|   -6.724086|    0.824079|    0.011945|
|          53|   -5.023098|   -6.728121|    0.824084|    0.011948|
|          54|   -5.020825|   -6.732219|    0.824087|    0.011951|
|          55|   -5.018288|   -6.736218|    0.824090|    0.011954|
|          56|   -5.015484|   -6.739965|    0.824090|    0.011957|
|          57|   -5.012426|   -6.743332|    0.824090|    0.011959|
|          58|   -5.009139|   -6.746236|    0.824088|    0.011962|
|          59|   -5.005657|   -6.748650|    0.824085|    0.011965|
|          60|   -5.002019|   -6.750602|    0.824080|    0.011968|
|          61|   -4.998269|   -6.752163|    0.824075|    0.011971|
|          62|   -4.994445|   -6.753428|    0.824068|    0.011974|
|          63|   -4.990588|   -6.754491|    0.824061|    0.011976|
|          64|   -4.986736|   -6.755422|    0.824053|    0.011979|
|          65|   -4.982921|   -6.756260|    0.824045|    0.011981|
|          66|   -4.979175|   -6.757005|    0.824036|    0.011984|
|          67|   -4.975524|   -6.757629|    0.824027|    0.011986|
|          68|   -4.971989|   -6.758096|    0.824019|    0.011988|
|          69|   -4.968588|   -6.758382|    0.824011|    0.011990|
|          70|   -4.965331|   -6.758495|    0.824003|    0.011992|
|          71|   -4.962227|   -6.758483|    0.823995|    0.011994|
|          72|   -4.959279|   -6.758435|    0.823988|    0.011996|
|          73|   -4.956485|   -6.758471|    0.823981|    0.011998|
|          74|   -4.953845|   -6.758729|    0.823975|    0.012000|
|          75|   -4.951351|   -6.759340|    0.823969|    0.012001|
|          76|   -4.948997|   -6.760413|    0.823964|    0.012003|
|          77|   -4.946772|   -6.762023|    0.823959|    0.012005|
|          78|   -4.944663|   -6.764201|    0.823954|    0.012006|
|          79|   -4.942653|   -6.766940|    0.823950|    0.012008|
|          80|   -4.940726|   -6.770197|    0.823946|    0.012009|
|          81|   -4.938864|   -6.773909|    0.823943|    0.012010|
|          82|   -4.937049|   -6.777998|    0.823940|    0.012012|
|          83|   -4.935267|   -6.782391|    0.823936|    0.012013|
|          84|   -4.933511|   -6.787024|    0.823933|    0.012014|
|          85|   -4.931779|   -6.791848|    0.823931|    0.012015|
|          86|   -4.930078|   -6.796834|    0.823928|    0.012016|
|          87|   -4.928426|   -6.801964|    0.823925|    0.012017|
|          88|   -4.926845|   -6.807236|    0.823923|    0.012017|
|          89|   -4.925367|   -6.812649|    0.823920|    0.012018|
|          90|   -4.924028|   -6.818203|    0.823918|    0.012018|
|          91|   -4.922865|   -6.823890|    0.823916|    0.012019|
|          92|   -4.921915|   -6.829694|    0.823913|    0.012019|
|          93|   -4.921212|   -6.835594|    0.823911|    0.012020|
|          94|   -4.920786|   -6.841557|    0.823909|    0.012020|
|          95|   -4.920658|   -6.847544|    0.823906|    0.012020|
|          96|   -4.920843|   -6.853511|    0.823904|    0.012020|
|          97|   -4.921347|   -6.859414|    0.823901|    0.012020|
|          98|   -4.922165|   -6.865211|    0.823899|    0.012020|
|          99|   -4.923284|   -6.870863|    0.823896|    0.012020|
|         100|   -4.924682|   -6.876335|    0.823893|    0.012019|
|         101|   -4.926324|   -6.881601|    0.823890|    0.012026|
+-----------------------------------------------------------------------+
|Fixed CL Mode                           |Value                         |
+-----------------------------------------------------------------------+
|Current CL                              |0.82389                       |
|Target CL                               |0.824                         |
|Previous AOA                            |2.78004                       |
|Changed AoA by                          |0.000536255                   |
+-----------------------------------------------------------------------+
+----------------------------------------------------------------+
|  Inner_Iter|    rms[Rho]|     rms[nu]|          CL|          CD|
+----------------------------------------------------------------+
|         102|   -3.463518|   -6.877067|    0.823886|    0.012026|
|         103|   -3.844185|   -6.886488|    0.823883|    0.012025|
|         104|   -4.079333|   -6.892379|    0.823879|    0.012025|
|         105|   -4.155210|   -6.897371|    0.823876|    0.012024|
|         106|   -4.208974|   -6.901861|    0.823872|    0.012023|
|         107|   -4.278482|   -6.905939|    0.823868|    0.012022|
|         108|   -4.363634|   -6.909641|    0.823864|    0.012021|
|         109|   -4.452013|   -6.912991|    0.823860|    0.012020|
|         110|   -4.527792|   -6.916012|    0.823856|    0.012019|
|         111|   -4.582694|   -6.918722|    0.823852|    0.012018|
|         112|   -4.617745|   -6.921139|    0.823848|    0.012016|
|         113|   -4.636454|   -6.923289|    0.823845|    0.012015|
|         114|   -4.642861|   -6.925203|    0.823841|    0.012014|
|         115|   -4.642948|   -6.926907|    0.823838|    0.012013|
|         116|   -4.643062|   -6.928420|    0.823835|    0.012011|
|         117|   -4.647198|   -6.929757|    0.823832|    0.012010|
|         118|   -4.656082|   -6.930934|    0.823829|    0.012009|
|         119|   -4.667939|   -6.931970|    0.823826|    0.012008|
|         120|   -4.680028|   -6.932894|    0.823824|    0.012006|
|         121|   -4.690248|   -6.933730|    0.823822|    0.012005|
|         122|   -4.698024|   -6.934503|    0.823820|    0.012004|
|         123|   -4.704042|   -6.935241|    0.823819|    0.012003|
|         124|   -4.709326|   -6.935966|    0.823818|    0.012002|
|         125|   -4.714523|   -6.936706|    0.823817|    0.012001|
|         126|   -4.719749|   -6.937493|    0.823816|    0.012000|
|         127|   -4.724810|   -6.938355|    0.823815|    0.011999|
|         128|   -4.729457|   -6.939315|    0.823814|    0.011998|
|         129|   -4.733520|   -6.940398|    0.823814|    0.011997|
|         130|   -4.736919|   -6.941625|    0.823813|    0.011997|
|         131|   -4.739668|   -6.943017|    0.823813|    0.011996|
|         132|   -4.741874|   -6.944591|    0.823813|    0.011995|
|         133|   -4.743748|   -6.946362|    0.823812|    0.011994|
|         134|   -4.745575|   -6.948341|    0.823812|    0.011994|
|         135|   -4.747644|   -6.950536|    0.823812|    0.011993|
|         136|   -4.750181|   -6.952952|    0.823812|    0.011992|
|         137|   -4.753295|   -6.955593|    0.823812|    0.011992|
|         138|   -4.756952|   -6.958458|    0.823812|    0.011991|
|         139|   -4.760993|   -6.961546|    0.823812|    0.011991|
|         140|   -4.765158|   -6.964853|    0.823812|    0.011990|
|         141|   -4.769141|   -6.968377|    0.823812|    0.011989|
|         142|   -4.772649|   -6.972110|    0.823812|    0.011989|
|         143|   -4.775474|   -6.976047|    0.823812|    0.011989|
|         144|   -4.777539|   -6.980181|    0.823812|    0.011988|
|         145|   -4.778909|   -6.984506|    0.823813|    0.011988|
|         146|   -4.779762|   -6.989016|    0.823814|    0.011987|
|         147|   -4.780330|   -6.993704|    0.823814|    0.011987|
|         148|   -4.780834|   -6.998566|    0.823815|    0.011987|
|         149|   -4.781432|   -7.003594|    0.823817|    0.011986|
|         150|   -4.782196|   -7.008785|    0.823818|    0.011986|
|         151|   -4.783113|   -7.014135|    0.823820|    0.011986|
|         152|   -4.784106|   -7.019640|    0.823822|    0.011986|
|         153|   -4.785064|   -7.025298|    0.823825|    0.011986|
|         154|   -4.785876|   -7.031104|    0.823828|    0.011986|
|         155|   -4.786457|   -7.037052|    0.823831|    0.011986|
|         156|   -4.786759|   -7.043133|    0.823834|    0.011986|
|         157|   -4.786779|   -7.049338|    0.823838|    0.011986|
|         158|   -4.786548|   -7.055651|    0.823842|    0.011987|
|         159|   -4.786118|   -7.062058|    0.823847|    0.011987|
|         160|   -4.785550|   -7.068541|    0.823852|    0.011987|
|         161|   -4.784901|   -7.075080|    0.823857|    0.011988|
|         162|   -4.784219|   -7.081650|    0.823862|    0.011988|
|         163|   -4.783537|   -7.088229|    0.823867|    0.011989|
|         164|   -4.782881|   -7.094793|    0.823873|    0.011989|
|         165|   -4.782265|   -7.101321|    0.823879|    0.011990|
|         166|   -4.781699|   -7.107775|    0.823884|    0.011990|
|         167|   -4.781193|   -7.114121|    0.823890|    0.011991|
|         168|   -4.780753|   -7.120321|    0.823896|    0.011992|
|         169|   -4.780386|   -7.126343|    0.823902|    0.011993|
|         170|   -4.780098|   -7.132154|    0.823908|    0.011993|
|         171|   -4.779892|   -7.137728|    0.823913|    0.011994|
|         172|   -4.779769|   -7.143045|    0.823919|    0.011995|
|         173|   -4.779728|   -7.148087|    0.823924|    0.011996|
|         174|   -4.779764|   -7.152847|    0.823929|    0.011997|
|         175|   -4.779872|   -7.157321|    0.823933|    0.011998|
|         176|   -4.780046|   -7.161518|    0.823937|    0.011999|
|         177|   -4.780280|   -7.165448|    0.823941|    0.012000|
|         178|   -4.780572|   -7.169130|    0.823945|    0.012001|
|         179|   -4.780921|   -7.172589|    0.823948|    0.012002|
|         180|   -4.781332|   -7.175853|    0.823951|    0.012002|
|         181|   -4.781814|   -7.178954|    0.823953|    0.012003|
|         182|   -4.782380|   -7.181927|    0.823955|    0.012004|
|         183|   -4.783048|   -7.184807|    0.823956|    0.012005|
|         184|   -4.783841|   -7.187634|    0.823957|    0.012006|
|         185|   -4.784786|   -7.190445|    0.823957|    0.012007|
|         186|   -4.785914|   -7.193273|    0.823958|    0.012008|
|         187|   -4.787256|   -7.196154|    0.823957|    0.012009|
|         188|   -4.788846|   -7.199116|    0.823957|    0.012010|
|         189|   -4.790718|   -7.202187|    0.823956|    0.012011|
|         190|   -4.792903|   -7.205388|    0.823954|    0.012011|
|         191|   -4.795431|   -7.208735|    0.823953|    0.012012|
|         192|   -4.798326|   -7.212241|    0.823951|    0.012013|
|         193|   -4.801608|   -7.215915|    0.823949|    0.012014|
|         194|   -4.805290|   -7.219759|    0.823946|    0.012015|
|         195|   -4.809373|   -7.223775|    0.823943|    0.012016|
|         196|   -4.813854|   -7.227955|    0.823941|    0.012016|
|         197|   -4.818714|   -7.232289|    0.823938|    0.012017|
|         198|   -4.823925|   -7.236762|    0.823935|    0.012018|
|         199|   -4.829446|   -7.241358|    0.823931|    0.012019|
|         200|   -4.835225|   -7.246056|    0.823928|    0.012019|
|         201|   -4.841196|   -7.250835|    0.823924|    0.012025|
+-----------------------------------------------------------------------+
|Fixed CL Mode                           |Value                         |
+-----------------------------------------------------------------------+
|Current CL                              |0.823924                      |
|Target CL                               |0.824                         |
|Previous AOA                            |2.78057                       |
|Changed AoA by                          |0.000360448                   |
+-----------------------------------------------------------------------+
+----------------------------------------------------------------+
|  Inner_Iter|    rms[Rho]|     rms[nu]|          CL|          CD|
+----------------------------------------------------------------+
|         202|   -3.635785|   -7.231789|    0.823921|    0.012026|
|         203|   -4.015356|   -7.247344|    0.823917|    0.012027|
|         204|   -4.245059|   -7.255303|    0.823914|    0.012027|
|         205|   -4.314764|   -7.261887|    0.823910|    0.012028|
|         206|   -4.363124|   -7.268060|    0.823907|    0.012029|
|         207|   -4.426032|   -7.274019|    0.823903|    0.012029|
|         208|   -4.501743|   -7.279804|    0.823900|    0.012030|
|         209|   -4.577496|   -7.285422|    0.823896|    0.012030|
|         210|   -4.639693|   -7.290857|    0.823893|    0.012031|
|         211|   -4.683485|   -7.296078|    0.823890|    0.012031|
|         212|   -4.711786|   -7.301063|    0.823887|    0.012032|
|         213|   -4.728405|   -7.305827|    0.823884|    0.012032|
|         214|   -4.736487|   -7.310413|    0.823881|    0.012032|
|         215|   -4.739964|   -7.314867|    0.823878|    0.012032|
|         216|   -4.743085|   -7.319223|    0.823875|    0.012033|
|         217|   -4.748716|   -7.323502|    0.823873|    0.012033|
|         218|   -4.757531|   -7.327729|    0.823870|    0.012033|
|         219|   -4.768445|   -7.331936|    0.823868|    0.012033|
|         220|   -4.779730|   -7.336157|    0.823866|    0.012033|
|         221|   -4.790148|   -7.340421|    0.823864|    0.012033|
|         222|   -4.799484|   -7.344742|    0.823862|    0.012033|
|         223|   -4.808297|   -7.349127|    0.823860|    0.012033|
|         224|   -4.817271|   -7.353569|    0.823859|    0.012033|
|         225|   -4.826751|   -7.358062|    0.823858|    0.012033|
|         226|   -4.836657|   -7.362602|    0.823856|    0.012032|
|         227|   -4.846666|   -7.367190|    0.823855|    0.012032|
|         228|   -4.856441|   -7.371813|    0.823855|    0.012032|
|         229|   -4.865762|   -7.376474|    0.823854|    0.012031|
|         230|   -4.874559|   -7.381173|    0.823853|    0.012031|
|         231|   -4.882904|   -7.385911|    0.823853|    0.012031|
|         232|   -4.890998|   -7.390686|    0.823853|    0.012030|
|         233|   -4.899150|   -7.395496|    0.823853|    0.012030|
|         234|   -4.907732|   -7.400340|    0.823853|    0.012029|
|         235|   -4.917106|   -7.405209|    0.823853|    0.012028|
|         236|   -4.927549|   -7.410093|    0.823854|    0.012028|
|         237|   -4.939196|   -7.414985|    0.823854|    0.012027|
|         238|   -4.952012|   -7.419872|    0.823855|    0.012027|
|         239|   -4.965789|   -7.424743|    0.823855|    0.012026|
|         240|   -4.980161|   -7.429585|    0.823856|    0.012025|
|         241|   -4.994649|   -7.434387|    0.823857|    0.012025|
|         242|   -5.008729|   -7.439137|    0.823858|    0.012024|
|         243|   -5.021936|   -7.443827|    0.823859|    0.012023|
|         244|   -5.033955|   -7.448447|    0.823861|    0.012023|
|         245|   -5.044692|   -7.452993|    0.823862|    0.012022|
|         246|   -5.054270|   -7.457458|    0.823863|    0.012021|
|         247|   -5.062969|   -7.461834|    0.823865|    0.012020|
|         248|   -5.071119|   -7.466122|    0.823866|    0.012020|
|         249|   -5.079005|   -7.470319|    0.823868|    0.012019|
|         250|   -5.086795|   -7.474422|    0.823870|    0.012018|
|         251|   -5.094520|   -7.478432|    0.823872|    0.012018|
|         252|   -5.102089|   -7.482360|    0.823874|    0.012017|
|         253|   -5.109336|   -7.486207|    0.823876|    0.012016|
|         254|   -5.116075|   -7.489976|    0.823878|    0.012016|
|         255|   -5.122155|   -7.493678|    0.823881|    0.012015|
|         256|   -5.127501|   -7.497325|    0.823883|    0.012015|
|         257|   -5.132124|   -7.500932|    0.823886|    0.012014|
|         258|   -5.136112|   -7.504525|    0.823889|    0.012013|
|         259|   -5.139606|   -7.508133|    0.823892|    0.012013|
|         260|   -5.142763|   -7.511791|    0.823895|    0.012012|
|         261|   -5.145732|   -7.515535|    0.823898|    0.012012|
|         262|   -5.148636|   -7.519409|    0.823902|    0.012011|
|         263|   -5.151561|   -7.523453|    0.823905|    0.012011|
|         264|   -5.154561|   -7.527719|    0.823909|    0.012011|
|         265|   -5.157666|   -7.532245|    0.823912|    0.012010|
|         266|   -5.160889|   -7.537067|    0.823916|    0.012010|
|         267|   -5.164237|   -7.542219|    0.823920|    0.012010|
|         268|   -5.167714|   -7.547726|    0.823924|    0.012009|
|         269|   -5.171328|   -7.553607|    0.823928|    0.012009|
|         270|   -5.175085|   -7.559872|    0.823933|    0.012009|
|         271|   -5.178991|   -7.566516|    0.823937|    0.012009|
|         272|   -5.183051|   -7.573520|    0.823941|    0.012009|
|         273|   -5.187265|   -7.580843|    0.823945|    0.012009|
|         274|   -5.191626|   -7.588423|    0.823949|    0.012008|
|         275|   -5.196126|   -7.596176|    0.823954|    0.012008|
|         276|   -5.200751|   -7.603991|    0.823958|    0.012008|
|         277|   -5.205483|   -7.611733|    0.823962|    0.012008|
|         278|   -5.210306|   -7.619245|    0.823966|    0.012009|
|         279|   -5.215202|   -7.626352|    0.823969|    0.012009|
|         280|   -5.220155|   -7.632869|    0.823973|    0.012009|
|         281|   -5.225148|   -7.638608|    0.823976|    0.012009|
|         282|   -5.230169|   -7.643393|    0.823980|    0.012009|
|         283|   -5.235207|   -7.647076|    0.823983|    0.012009|
|         284|   -5.240251|   -7.649548|    0.823986|    0.012010|
|         285|   -5.245293|   -7.650752|    0.823989|    0.012010|
|         286|   -5.250327|   -7.650695|    0.823991|    0.012010|
|         287|   -5.255345|   -7.649441|    0.823993|    0.012010|
|         288|   -5.260343|   -7.647114|    0.823995|    0.012011|
|         289|   -5.265316|   -7.643883|    0.823997|    0.012011|
|         290|   -5.270260|   -7.639950|    0.823999|    0.012011|
|         291|   -5.275171|   -7.635537|    0.824000|    0.012012|
|         292|   -5.280045|   -7.630872|    0.824001|    0.012012|
|         293|   -5.284880|   -7.626179|    0.824002|    0.012013|
|         294|   -5.289673|   -7.621666|    0.824003|    0.012013|
|         295|   -5.294421|   -7.617519|    0.824003|    0.012014|
|         296|   -5.299124|   -7.613900|    0.824003|    0.012014|
|         297|   -5.303781|   -7.610947|    0.824003|    0.012014|
|         298|   -5.308391|   -7.608771|    0.824003|    0.012015|
|         299|   -5.312956|   -7.607459|    0.824003|    0.012015|
|         300|   -5.317479|   -7.607073|    0.824002|    0.012016|
|         301|   -5.321963|   -7.607652|    0.824002|    0.012016|
+-----------------------------------------------------------------------+
|Fixed CL Mode                           |Value                         |
+-----------------------------------------------------------------------+
|Current CL                              |0.824002                      |
|Target CL                               |0.824                         |
|Previous AOA                            |2.78093                       |
|Changed AoA by                          |-1.09762e-05                  |
+-----------------------------------------------------------------------+
+----------------------------------------------------------------+
|  Inner_Iter|    rms[Rho]|     rms[nu]|          CL|          CD|
+----------------------------------------------------------------+
|         302|   -5.073623|   -7.609236|    0.824001|    0.012017|
|         303|   -5.270907|   -7.611807|    0.824000|    0.012017|
|         304|   -5.328755|   -7.615290|    0.823999|    0.012018|
|         305|   -5.342527|   -7.619675|    0.823997|    0.012018|
|         306|   -5.348834|   -7.624901|    0.823996|    0.012019|
|         307|   -5.353512|   -7.630880|    0.823995|    0.012019|
|         308|   -5.357370|   -7.637496|    0.823993|    0.012019|
|         309|   -5.360464|   -7.644613|    0.823992|    0.012020|
|         310|   -5.363041|   -7.652073|    0.823990|    0.012020|
|         311|   -5.365509|   -7.659698|    0.823989|    0.012021|
|         312|   -5.368178|   -7.667301|    0.823987|    0.012021|
|         313|   -5.371189|   -7.674684|    0.823986|    0.012021|
|         314|   -5.374581|   -7.681649|    0.823984|    0.012022|
|         315|   -5.378357|   -7.688008|    0.823982|    0.012022|
|         316|   -5.382485|   -7.693595|    0.823981|    0.012022|
|         317|   -5.386885|   -7.698278|    0.823979|    0.012023|
|         318|   -5.391429|   -7.701968|    0.823978|    0.012023|
|         319|   -5.395965|   -7.704622|    0.823976|    0.012023|
|         320|   -5.400354|   -7.706249|    0.823975|    0.012023|
|         321|   -5.404508|   -7.706912|    0.823974|    0.012024|
|         322|   -5.408393|   -7.706713|    0.823972|    0.012024|
|         323|   -5.412020|   -7.705792|    0.823971|    0.012024|
|         324|   -5.415422|   -7.704310|    0.823970|    0.012024|
|         325|   -5.418632|   -7.702440|    0.823969|    0.012024|
|         326|   -5.421671|   -7.700356|    0.823968|    0.012024|
|         327|   -5.424543|   -7.698221|    0.823967|    0.012024|
|         328|   -5.427234|   -7.696185|    0.823966|    0.012024|
|         329|   -5.429715|   -7.694380|    0.823965|    0.012024|
|         330|   -5.431953|   -7.692914|    0.823965|    0.012024|
|         331|   -5.433915|   -7.691877|    0.823964|    0.012024|
|         332|   -5.435576|   -7.691333|    0.823963|    0.012024|
|         333|   -5.436925|   -7.691328|    0.823963|    0.012024|
|         334|   -5.437966|   -7.691889|    0.823962|    0.012024|
|         335|   -5.438720|   -7.693024|    0.823962|    0.012024|
|         336|   -5.439218|   -7.694726|    0.823961|    0.012024|
|         337|   -5.439497|   -7.696972|    0.823961|    0.012024|
|         338|   -5.439599|   -7.699731|    0.823960|    0.012024|
|         339|   -5.439564|   -7.702957|    0.823960|    0.012024|
|         340|   -5.439432|   -7.706596|    0.823959|    0.012024|
|         341|   -5.439237|   -7.710586|    0.823959|    0.012024|
|         342|   -5.439015|   -7.714858|    0.823959|    0.012023|
|         343|   -5.438797|   -7.719342|    0.823958|    0.012023|
|         344|   -5.438616|   -7.723963|    0.823958|    0.012023|
|         345|   -5.438505|   -7.728650|    0.823958|    0.012023|
|         346|   -5.438498|   -7.733332|    0.823957|    0.012022|
|         347|   -5.438628|   -7.737943|    0.823957|    0.012022|
|         348|   -5.438926|   -7.742421|    0.823957|    0.012022|
|         349|   -5.439424|   -7.746710|    0.823956|    0.012022|
|         350|   -5.440149|   -7.750763|    0.823956|    0.012021|
|         351|   -5.441123|   -7.754542|    0.823955|    0.012021|
|         352|   -5.442369|   -7.758018|    0.823955|    0.012021|
|         353|   -5.443903|   -7.761169|    0.823955|    0.012021|
|         354|   -5.445739|   -7.763982|    0.823954|    0.012020|
|         355|   -5.447886|   -7.766452|    0.823954|    0.012020|
|         356|   -5.450353|   -7.768578|    0.823954|    0.012020|
|         357|   -5.453145|   -7.770364|    0.823953|    0.012019|
|         358|   -5.456262|   -7.771821|    0.823953|    0.012019|
|         359|   -5.459704|   -7.772966|    0.823953|    0.012019|
|         360|   -5.463467|   -7.773817|    0.823953|    0.012018|
|         361|   -5.467544|   -7.774395|    0.823953|    0.012018|
|         362|   -5.471926|   -7.774724|    0.823952|    0.012018|
|         363|   -5.476601|   -7.774832|    0.823952|    0.012017|
|         364|   -5.481553|   -7.774749|    0.823952|    0.012017|
|         365|   -5.486765|   -7.774508|    0.823952|    0.012017|
|         366|   -5.492215|   -7.774144|    0.823953|    0.012016|
|         367|   -5.497881|   -7.773695|    0.823953|    0.012016|
|         368|   -5.503738|   -7.773203|    0.823953|    0.012016|
|         369|   -5.509757|   -7.772710|    0.823953|    0.012016|
|         370|   -5.515908|   -7.772261|    0.823954|    0.012015|
|         371|   -5.522159|   -7.771902|    0.823954|    0.012015|
|         372|   -5.528477|   -7.771678|    0.823955|    0.012015|
|         373|   -5.534825|   -7.771631|    0.823955|    0.012015|
|         374|   -5.541169|   -7.771804|    0.823956|    0.012014|
|         375|   -5.547472|   -7.772235|    0.823957|    0.012014|
|         376|   -5.553697|   -7.772955|    0.823958|    0.012014|
|         377|   -5.559809|   -7.773994|    0.823959|    0.012014|
|         378|   -5.565772|   -7.775370|    0.823960|    0.012014|
|         379|   -5.571554|   -7.777098|    0.823961|    0.012014|
|         380|   -5.577125|   -7.779184|    0.823962|    0.012013|
|         381|   -5.582457|   -7.781623|    0.823963|    0.012013|
|         382|   -5.587525|   -7.784403|    0.823965|    0.012013|
|         383|   -5.592310|   -7.787504|    0.823966|    0.012013|
|         384|   -5.596795|   -7.790895|    0.823967|    0.012013|
|         385|   -5.600967|   -7.794537|    0.823969|    0.012013|
|         386|   -5.604821|   -7.798384|    0.823970|    0.012013|
|         387|   -5.608351|   -7.802381|    0.823972|    0.012013|
|         388|   -5.611558|   -7.806470|    0.823973|    0.012013|
|         389|   -5.614448|   -7.810590|    0.823975|    0.012013|
|         390|   -5.617027|   -7.814675|    0.823977|    0.012013|
|         391|   -5.619306|   -7.818664|    0.823978|    0.012013|
|         392|   -5.621296|   -7.822501|    0.823980|    0.012013|
|         393|   -5.623014|   -7.826133|    0.823982|    0.012013|
|         394|   -5.624472|   -7.829521|    0.823983|    0.012014|
|         395|   -5.625688|   -7.832635|    0.823985|    0.012014|
|         396|   -5.626677|   -7.835459|    0.823986|    0.012014|
|         397|   -5.627455|   -7.837993|    0.823988|    0.012014|
|         398|   -5.628038|   -7.840247|    0.823989|    0.012014|
|         399|   -5.628441|   -7.842248|    0.823991|    0.012014|
|         400|   -5.628677|   -7.844032|    0.823992|    0.012014|
|         401|   -5.628761|   -7.845644|    0.823994|    0.012015|
+-----------------------------------------------------------------------+
|Fixed CL Mode                           |Value                         |
+-----------------------------------------------------------------------+
|Current CL                              |0.823994                      |
|Target CL                               |0.824                         |
|Previous AOA                            |2.78092                       |
|Changed AoA by                          |3.78629e-05                   |
+-----------------------------------------------------------------------+
+----------------------------------------------------------------+
|  Inner_Iter|    rms[Rho]|     rms[nu]|          CL|          CD|
+----------------------------------------------------------------+
|         402|   -4.614028|   -7.843154|    0.823995|    0.012015|
|         403|   -4.992946|   -7.846638|    0.823997|    0.012016|
|         404|   -5.217656|   -7.848714|    0.823998|    0.012016|
|         405|   -5.278428|   -7.850551|    0.823999|    0.012016|
|         406|   -5.315881|   -7.852356|    0.824000|    0.012016|
|         407|   -5.364057|   -7.854214|    0.824001|    0.012016|
|         408|   -5.419372|   -7.856183|    0.824003|    0.012017|
|         409|   -5.470015|   -7.858315|    0.824004|    0.012017|
|         410|   -5.507285|   -7.860650|    0.824005|    0.012017|
|         411|   -5.530980|   -7.863211|    0.824006|    0.012017|
|         412|   -5.545134|   -7.866013|    0.824006|    0.012017|
|         413|   -5.552963|   -7.869062|    0.824007|    0.012018|
|         414|   -5.556530|   -7.872355|    0.824008|    0.012018|
|         415|   -5.557885|   -7.875880|    0.824009|    0.012018|
|         416|   -5.559070|   -7.879614|    0.824010|    0.012018|
|         417|   -5.561430|   -7.883527|    0.824010|    0.012018|
|         418|   -5.565248|   -7.887583|    0.824011|    0.012019|
|         419|   -5.569999|   -7.891745|    0.824012|    0.012019|
|         420|   -5.574931|   -7.895976|    0.824012|    0.012019|
|         421|   -5.579573|   -7.900241|    0.824013|    0.012019|
|         422|   -5.583904|   -7.904502|    0.824013|    0.012019|
|         423|   -5.588174|   -7.908730|    0.824014|    0.012019|
|         424|   -5.592625|   -7.912896|    0.824014|    0.012019|
|         425|   -5.597308|   -7.916978|    0.824014|    0.012020|
|         426|   -5.602090|   -7.920963|    0.824015|    0.012020|
|         427|   -5.606757|   -7.924844|    0.824015|    0.012020|
|         428|   -5.611121|   -7.928620|    0.824015|    0.012020|
|         429|   -5.615087|   -7.932299|    0.824015|    0.012020|
|         430|   -5.618657|   -7.935895|    0.824016|    0.012020|
|         431|   -5.621915|   -7.939427|    0.824016|    0.012020|
|         432|   -5.625003|   -7.942917|    0.824016|    0.012020|
|         433|   -5.628095|   -7.946390|    0.824016|    0.012020|
|         434|   -5.631358|   -7.949868|    0.824016|    0.012020|
|         435|   -5.634926|   -7.953374|    0.824016|    0.012020|
|         436|   -5.638862|   -7.956932|    0.824016|    0.012020|
|         437|   -5.643153|   -7.960561|    0.824016|    0.012020|
|         438|   -5.647707|   -7.964281|    0.824016|    0.012020|
|         439|   -5.652373|   -7.968103|    0.824016|    0.012020|
|         440|   -5.656962|   -7.972032|    0.824016|    0.012020|
|         441|   -5.661275|   -7.976071|    0.824015|    0.012020|
|         442|   -5.665136|   -7.980215|    0.824015|    0.012020|
|         443|   -5.668416|   -7.984455|    0.824015|    0.012020|
|         444|   -5.671049|   -7.988778|    0.824015|    0.012020|
|         445|   -5.673036|   -7.993164|    0.824015|    0.012020|
|         446|   -5.674426|   -7.997589|    0.824014|    0.012020|
|         447|   -5.675298|   -8.002023|    0.824014|    0.012020|
|         448|   -5.675735|   -8.006427|    0.824014|    0.012019|
|         449|   -5.675804|   -8.010760|    0.824014|    0.012019|
|         450|   -5.675547|   -8.014977|    0.824013|    0.012019|
|         451|   -5.674982|   -8.019032|    0.824013|    0.012019|
|         452|   -5.674109|   -8.022879|    0.824013|    0.012019|
|         453|   -5.672924|   -8.026477|    0.824013|    0.012019|
|         454|   -5.671428|   -8.029787|    0.824013|    0.012018|
|         455|   -5.669633|   -8.032778|    0.824012|    0.012018|
|         456|   -5.667572|   -8.035427|    0.824012|    0.012018|
|         457|   -5.665288|   -8.037721|    0.824012|    0.012018|
|         458|   -5.662839|   -8.039659|    0.824012|    0.012018|
|         459|   -5.660286|   -8.041253|    0.824012|    0.012017|
|         460|   -5.657693|   -8.042526|    0.824012|    0.012017|
|         461|   -5.655117|   -8.043518|    0.824012|    0.012017|
|         462|   -5.652609|   -8.044272|    0.824012|    0.012017|
|         463|   -5.650214|   -8.044843|    0.824012|    0.012017|
|         464|   -5.647970|   -8.045280|    0.824012|    0.012016|
|         465|   -5.645907|   -8.045643|    0.824012|    0.012016|
|         466|   -5.644051|   -8.045991|    0.824012|    0.012016|
|         467|   -5.642425|   -8.046387|    0.824012|    0.012016|
|         468|   -5.641047|   -8.046890|    0.824013|    0.012016|
|         469|   -5.639935|   -8.047556|    0.824013|    0.012015|
|         470|   -5.639100|   -8.048433|    0.824013|    0.012015|
|         471|   -5.638555|   -8.049561|    0.824013|    0.012015|
|         472|   -5.638305|   -8.050976|    0.824014|    0.012015|
|         473|   -5.638355|   -8.052702|    0.824014|    0.012015|
|         474|   -5.638708|   -8.054756|    0.824015|    0.012015|
|         475|   -5.639363|   -8.057144|    0.824015|    0.012014|
|         476|   -5.640315|   -8.059864|    0.824015|    0.012014|
|         477|   -5.641558|   -8.062906|    0.824016|    0.012014|
|         478|   -5.643085|   -8.066249|    0.824016|    0.012014|
|         479|   -5.644885|   -8.069868|    0.824017|    0.012014|
|         480|   -5.646945|   -8.073729|    0.824017|    0.012014|
|         481|   -5.649252|   -8.077791|    0.824018|    0.012014|
|         482|   -5.651789|   -8.082011|    0.824018|    0.012014|
|         483|   -5.654539|   -8.086340|    0.824019|    0.012014|
|         484|   -5.657483|   -8.090731|    0.824019|    0.012014|
|         485|   -5.660599|   -8.095132|    0.824020|    0.012013|
|         486|   -5.663865|   -8.099494|    0.824020|    0.012013|
|         487|   -5.667258|   -8.103772|    0.824021|    0.012013|
|         488|   -5.670751|   -8.107924|    0.824021|    0.012013|
|         489|   -5.674320|   -8.111914|    0.824022|    0.012013|
|         490|   -5.677937|   -8.115715|    0.824022|    0.012013|
|         491|   -5.681571|   -8.119302|    0.824023|    0.012013|
|         492|   -5.685195|   -8.122663|    0.824024|    0.012013|
|         493|   -5.688778|   -8.125795|    0.824024|    0.012013|
|         494|   -5.692289|   -8.128697|    0.824025|    0.012014|
|         495|   -5.695697|   -8.131376|    0.824025|    0.012014|
|         496|   -5.698971|   -8.133845|    0.824026|    0.012014|
|         497|   -5.702080|   -8.136123|    0.824026|    0.012014|
|         498|   -5.704994|   -8.138233|    0.824027|    0.012014|
|         499|   -5.707686|   -8.140199|    0.824027|    0.012014|
|         500|   -5.710129|   -8.142045|    0.824028|    0.012014|
|         501|   -5.712298|   -8.143796|    0.824028|    0.012012|
+-----------------------------------------------------------------------+
|Fixed CL Mode                           |Value                         |
+-----------------------------------------------------------------------+
|Current CL                              |0.824028                      |
|Target CL                               |0.824                         |
|Previous AOA                            |2.78096                       |
|Changed AoA by                          |-0.000138821                  |
+-----------------------------------------------------------------------+
+----------------------------------------------------------------+
|  Inner_Iter|    rms[Rho]|     rms[nu]|          CL|          CD|
+----------------------------------------------------------------+
|         502|   -4.050624|   -7.995728|    0.824029|    0.012012|
|         503|   -4.433193|   -8.058992|    0.824029|    0.012012|
|         504|   -4.673426|   -8.081957|    0.824030|    0.012013|
|         505|   -4.751662|   -8.095736|    0.824030|    0.012013|
|         506|   -4.805924|   -8.106230|    0.824031|    0.012013|
|         507|   -4.875790|   -8.114947|    0.824031|    0.012013|
|         508|   -4.961453|   -8.122382|    0.824032|    0.012013|
|         509|   -5.050218|   -8.128802|    0.824032|    0.012014|
|         510|   -5.125924|   -8.134330|    0.824033|    0.012014|
|         511|   -5.180629|   -8.138929|    0.824033|    0.012014|
|         512|   -5.216148|   -8.142570|    0.824033|    0.012014|
|         513|   -5.236373|   -8.145390|    0.824034|    0.012014|
|         514|   -5.245141|   -8.147631|    0.824034|    0.012015|
|         515|   -5.248101|   -8.149463|    0.824035|    0.012015|
|         516|   -5.251527|   -8.150919|    0.824035|    0.012015|
|         517|   -5.259567|   -8.151948|    0.824035|    0.012015|
|         518|   -5.273117|   -8.152525|    0.824036|    0.012015|
|         519|   -5.290418|   -8.152694|    0.824036|    0.012016|
|         520|   -5.308525|   -8.152541|    0.824036|    0.012016|
|         521|   -5.325033|   -8.152144|    0.824037|    0.012016|
|         522|   -5.339191|   -8.151531|    0.824037|    0.012016|
|         523|   -5.351738|   -8.150681|    0.824037|    0.012016|
|         524|   -5.363857|   -8.149556|    0.824037|    0.012017|
|         525|   -5.376251|   -8.148118|    0.824038|    0.012017|
|         526|   -5.388885|   -8.146347|    0.824038|    0.012017|
|         527|   -5.401240|   -8.144243|    0.824038|    0.012017|
|         528|   -5.412677|   -8.141819|    0.824038|    0.012017|
|         529|   -5.422691|   -8.139097|    0.824038|    0.012018|
|         530|   -5.430997|   -8.136111|    0.824039|    0.012018|
|         531|   -5.437562|   -8.132894|    0.824039|    0.012018|
|         532|   -5.442624|   -8.129478|    0.824039|    0.012018|
|         533|   -5.446673|   -8.125905|    0.824039|    0.012018|
|         534|   -5.450367|   -8.122198|    0.824039|    0.012018|
|         535|   -5.454379|   -8.118390|    0.824039|    0.012018|
|         536|   -5.459254|   -8.114509|    0.824039|    0.012018|
|         537|   -5.465311|   -8.110582|    0.824039|    0.012019|
|         538|   -5.472612|   -8.106639|    0.824039|    0.012019|
|         539|   -5.480963|   -8.102709|    0.824039|    0.012019|
|         540|   -5.489968|   -8.098826|    0.824039|    0.012019|
|         541|   -5.499097|   -8.095023|    0.824039|    0.012019|
|         542|   -5.507802|   -8.091331|    0.824039|    0.012019|
|         543|   -5.515651|   -8.087787|    0.824039|    0.012019|
|         544|   -5.522444|   -8.084422|    0.824039|    0.012019|
|         545|   -5.528268|   -8.081266|    0.824038|    0.012019|
|         546|   -5.533459|   -8.078347|    0.824038|    0.012019|
|         547|   -5.538490|   -8.075688|    0.824038|    0.012018|
|         548|   -5.543841|   -8.073308|    0.824037|    0.012018|
|         549|   -5.549882|   -8.071221|    0.824037|    0.012018|
|         550|   -5.556810|   -8.069441|    0.824037|    0.012018|
|         551|   -5.564634|   -8.067975|    0.824036|    0.012018|
|         552|   -5.573202|   -8.066832|    0.824036|    0.012018|
|         553|   -5.582254|   -8.066028|    0.824035|    0.012018|
|         554|   -5.591485|   -8.065561|    0.824034|    0.012018|
|         555|   -5.600611|   -8.065439|    0.824034|    0.012017|
|         556|   -5.609420|   -8.065671|    0.824033|    0.012017|
|         557|   -5.617795|   -8.066270|    0.824032|    0.012017|
|         558|   -5.625712|   -8.067248|    0.824031|    0.012017|
|         559|   -5.633226|   -8.068619|    0.824031|    0.012017|
|         560|   -5.640426|   -8.070396|    0.824030|    0.012016|
|         561|   -5.647406|   -8.072587|    0.824029|    0.012016|
|         562|   -5.654240|   -8.075201|    0.824028|    0.012016|
|         563|   -5.660963|   -8.078240|    0.824027|    0.012016|
|         564|   -5.667577|   -8.081700|    0.824026|    0.012015|
|         565|   -5.674054|   -8.085570|    0.824025|    0.012015|
|         566|   -5.680353|   -8.089828|    0.824024|    0.012015|
|         567|   -5.686429|   -8.094441|    0.824023|    0.012014|
|         568|   -5.692241|   -8.099363|    0.824022|    0.012014|
|         569|   -5.697762|   -8.104533|    0.824021|    0.012014|
|         570|   -5.702976|   -8.109874|    0.824020|    0.012014|
|         571|   -5.707878|   -8.115293|    0.824019|    0.012013|
|         572|   -5.712468|   -8.120681|    0.824018|    0.012013|
|         573|   -5.716750|   -8.125916|    0.824017|    0.012013|
|         574|   -5.720730|   -8.130867|    0.824016|    0.012012|
|         575|   -5.724415|   -8.135395|    0.824015|    0.012012|
|         576|   -5.727815|   -8.139368|    0.824015|    0.012012|
|         577|   -5.730943|   -8.142661|    0.824014|    0.012012|
|         578|   -5.733814|   -8.145172|    0.824013|    0.012011|
|         579|   -5.736451|   -8.146828|    0.824013|    0.012011|
|         580|   -5.738883|   -8.147590|    0.824013|    0.012011|
|         581|   -5.741142|   -8.147466|    0.824012|    0.012011|
|         582|   -5.743267|   -8.146501|    0.824012|    0.012011|
|         583|   -5.745297|   -8.144785|    0.824012|    0.012010|
|         584|   -5.747277|   -8.142442|    0.824012|    0.012010|
|         585|   -5.749250|   -8.139620|    0.824012|    0.012010|
|         586|   -5.751261|   -8.136489|    0.824013|    0.012010|
|         587|   -5.753353|   -8.133226|    0.824013|    0.012010|
|         588|   -5.755568|   -8.130009|    0.824013|    0.012010|
|         589|   -5.757943|   -8.127008|    0.824014|    0.012010|
|         590|   -5.760514|   -8.124381|    0.824014|    0.012009|
|         591|   -5.763315|   -8.122273|    0.824015|    0.012009|
|         592|   -5.766372|   -8.120805|    0.824016|    0.012009|
|         593|   -5.769710|   -8.120083|    0.824017|    0.012009|
|         594|   -5.773346|   -8.120193|    0.824018|    0.012009|
|         595|   -5.777296|   -8.121201|    0.824019|    0.012009|
|         596|   -5.781568|   -8.123157|    0.824020|    0.012009|
|         597|   -5.786165|   -8.126090|    0.824021|    0.012009|
|         598|   -5.791087|   -8.130012|    0.824022|    0.012009|
|         599|   -5.796326|   -8.134919|    0.824023|    0.012009|
|         600|   -5.801870|   -8.140788|    0.824024|    0.012009|
|         601|   -5.807703|   -8.147575|    0.824025|    0.012008|
+-----------------------------------------------------------------------+
|Fixed CL Mode                           |Value                         |
+-----------------------------------------------------------------------+
|Current CL                              |0.824025                      |
|Target CL                               |0.824                         |
|Previous AOA                            |2.78082                       |
|Changed AoA by                          |-0.000120701                  |
+-----------------------------------------------------------------------+
+----------------------------------------------------------------+
|  Inner_Iter|    rms[Rho]|     rms[nu]|          CL|          CD|
+----------------------------------------------------------------+
|         602|   -4.111470|   -8.028279|    0.824027|    0.012008|
|         603|   -4.494227|   -8.088421|    0.824028|    0.012008|
|         604|   -4.733770|   -8.114846|    0.824029|    0.012008|
|         605|   -4.810650|   -8.134232|    0.824030|    0.012008|
|         606|   -4.863976|   -8.151294|    0.824032|    0.012008|
|         607|   -4.933286|   -8.167076|    0.824033|    0.012008|
|         608|   -5.018832|   -8.181829|    0.824034|    0.012008|
|         609|   -5.108360|   -8.195646|    0.824035|    0.012009|
|         610|   -5.186257|   -8.208487|    0.824037|    0.012009|
|         611|   -5.244549|   -8.220135|    0.824038|    0.012009|
|         612|   -5.284364|   -8.230363|    0.824039|    0.012009|
|         613|   -5.308704|   -8.239135|    0.824040|    0.012009|
|         614|   -5.320706|   -8.246568|    0.824041|    0.012009|
|         615|   -5.325893|   -8.252756|    0.824042|    0.012010|
|         616|   -5.330971|   -8.257682|    0.824043|    0.012010|
|         617|   -5.340648|   -8.261273|    0.824044|    0.012010|
|         618|   -5.356222|   -8.263522|    0.824045|    0.012010|
|         619|   -5.376103|   -8.264553|    0.824046|    0.012010|
|         620|   -5.397325|   -8.264572|    0.824047|    0.012011|
|         621|   -5.417362|   -8.263786|    0.824047|    0.012011|
|         622|   -5.435378|   -8.262360|    0.824048|    0.012011|
|         623|   -5.452133|   -8.260384|    0.824049|    0.012011|
|         624|   -5.468868|   -8.257936|    0.824049|    0.012012|
|         625|   -5.486248|   -8.255091|    0.824050|    0.012012|
|         626|   -5.504021|   -8.251948|    0.824050|    0.012012|
|         627|   -5.521288|   -8.248613|    0.824051|    0.012012|
|         628|   -5.536976|   -8.245202|    0.824051|    0.012012|
|         629|   -5.550214|   -8.241826|    0.824051|    0.012013|
|         630|   -5.560532|   -8.238580|    0.824051|    0.012013|
|         631|   -5.567930|   -8.235543|    0.824052|    0.012013|
|         632|   -5.572886|   -8.232767|    0.824052|    0.012013|
|         633|   -5.576262|   -8.230290|    0.824052|    0.012013|
|         634|   -5.579116|   -8.228105|    0.824052|    0.012014|
|         635|   -5.582451|   -8.226198|    0.824052|    0.012014|
|         636|   -5.587018|   -8.224531|    0.824051|    0.012014|
|         637|   -5.593204|   -8.223057|    0.824051|    0.012014|
|         638|   -5.601019|   -8.221726|    0.824051|    0.012014|
|         639|   -5.610120|   -8.220488|    0.824051|    0.012014|
|         640|   -5.619887|   -8.219301|    0.824050|    0.012015|
|         641|   -5.629532|   -8.218128|    0.824050|    0.012015|
|         642|   -5.638266|   -8.216940|    0.824049|    0.012015|
|         643|   -5.645498|   -8.215720|    0.824049|    0.012015|
|         644|   -5.651008|   -8.214458|    0.824048|    0.012015|
|         645|   -5.655005|   -8.213152|    0.824048|    0.012015|
|         646|   -5.658051|   -8.211806|    0.824047|    0.012015|
|         647|   -5.660876|   -8.210423|    0.824047|    0.012015|
|         648|   -5.664184|   -8.209009|    0.824046|    0.012015|
|         649|   -5.668499|   -8.207567|    0.824045|    0.012015|
|         650|   -5.674102|   -8.206102|    0.824045|    0.012015|
|         651|   -5.681023|   -8.204615|    0.824044|    0.012015|
|         652|   -5.689091|   -8.203103|    0.824043|    0.012015|
|         653|   -5.698004|   -8.201573|    0.824042|    0.012015|
|         654|   -5.707415|   -8.200021|    0.824041|    0.012015|
|         655|   -5.717009|   -8.198443|    0.824040|    0.012015|
|         656|   -5.726562|   -8.196836|    0.824040|    0.012015|
|         657|   -5.735972|   -8.195200|    0.824039|    0.012015|
|         658|   -5.745260|   -8.193541|    0.824038|    0.012015|
|         659|   -5.754536|   -8.191866|    0.824037|    0.012015|
|         660|   -5.763957|   -8.190186|    0.824036|    0.012015|
|         661|   -5.773682|   -8.188516|    0.824035|    0.012015|
|         662|   -5.783843|   -8.186872|    0.824034|    0.012015|
|         663|   -5.794522|   -8.185276|    0.824032|    0.012015|
|         664|   -5.805748|   -8.183749|    0.824031|    0.012015|
|         665|   -5.817510|   -8.182317|    0.824030|    0.012015|
|         666|   -5.829765|   -8.181006|    0.824029|    0.012015|
|         667|   -5.842457|   -8.179841|    0.824028|    0.012014|
|         668|   -5.855521|   -8.178848|    0.824027|    0.012014|
|         669|   -5.868900|   -8.178050|    0.824026|    0.012014|
|         670|   -5.882535|   -8.177465|    0.824025|    0.012014|
|         671|   -5.896370|   -8.177107|    0.824024|    0.012014|
|         672|   -5.910342|   -8.176982|    0.824023|    0.012014|
|         673|   -5.924376|   -8.177088|    0.824022|    0.012014|
|         674|   -5.938380|   -8.177414|    0.824021|    0.012013|
|         675|   -5.952241|   -8.177941|    0.824020|    0.012013|
|         676|   -5.965830|   -8.178636|    0.824019|    0.012013|
|         677|   -5.979003|   -8.179459|    0.824019|    0.012013|
|         678|   -5.991606|   -8.180360|    0.824018|    0.012013|
|         679|   -6.003485|   -8.181283|    0.824017|    0.012013|
|         680|   -6.014496|   -8.182166|    0.824017|    0.012012|
|         681|   -6.024511|   -8.182947|    0.824016|    0.012012|
|         682|   -6.033432|   -8.183564|    0.824016|    0.012012|
|         683|   -6.041191|   -8.183962|    0.824015|    0.012012|
|         684|   -6.047761|   -8.184094|    0.824015|    0.012012|
|         685|   -6.053152|   -8.183926|    0.824015|    0.012012|
|         686|   -6.057415|   -8.183442|    0.824015|    0.012011|
|         687|   -6.060635|   -8.182643|    0.824015|    0.012011|
|         688|   -6.062923|   -8.181549|    0.824015|    0.012011|
|         689|   -6.064411|   -8.180199|    0.824015|    0.012011|
|         690|   -6.065245|   -8.178650|    0.824015|    0.012011|
|         691|   -6.065571|   -8.176971|    0.824015|    0.012011|
|         692|   -6.065535|   -8.175247|    0.824015|    0.012011|
|         693|   -6.065274|   -8.173567|    0.824016|    0.012010|
|         694|   -6.064912|   -8.172025|    0.824016|    0.012010|
|         695|   -6.064558|   -8.170713|    0.824017|    0.012010|
|         696|   -6.064308|   -8.169722|    0.824017|    0.012010|
|         697|   -6.064240|   -8.169133|    0.824018|    0.012010|
|         698|   -6.064417|   -8.169018|    0.824018|    0.012010|
|         699|   -6.064890|   -8.169440|    0.824019|    0.012010|
|         700|   -6.065697|   -8.170443|    0.824020|    0.012010|
|         701|   -6.066865|   -8.172061|    0.824021|    0.012008|
+-----------------------------------------------------------------------+
|Fixed CL Mode                           |Value                         |
+-----------------------------------------------------------------------+
|Current CL                              |0.824021                      |
|Target CL                               |0.824                         |
|Previous AOA                            |2.7807                        |
|Changed AoA by                          |-9.86758e-05                  |
+-----------------------------------------------------------------------+
+----------------------------------------------------------------+
|  Inner_Iter|    rms[Rho]|     rms[nu]|          CL|          CD|
+----------------------------------------------------------------+
|         702|   -4.199055|   -8.075307|    0.824021|    0.012008|
|         703|   -4.581980|   -8.121421|    0.824022|    0.012008|
|         704|   -4.821437|   -8.139225|    0.824023|    0.012008|
|         705|   -4.897886|   -8.151347|    0.824024|    0.012008|
|         706|   -4.950934|   -8.161693|    0.824025|    0.012008|
|         707|   -5.020185|   -8.171180|    0.824026|    0.012008|
|         708|   -5.105986|   -8.180090|    0.824026|    0.012008|
|         709|   -5.196298|   -8.188563|    0.824027|    0.012008|
|         710|   -5.275660|   -8.196631|    0.824028|    0.012008|
|         711|   -5.335926|   -8.204193|    0.824029|    0.012008|
|         712|   -5.377806|   -8.211124|    0.824030|    0.012008|
|         713|   -5.403883|   -8.217391|    0.824031|    0.012008|
|         714|   -5.417019|   -8.223034|    0.824032|    0.012008|
|         715|   -5.422785|   -8.228046|    0.824032|    0.012008|
|         716|   -5.428174|   -8.232353|    0.824033|    0.012008|
|         717|   -5.438181|   -8.235837|    0.824034|    0.012009|
|         718|   -5.454260|   -8.238429|    0.824035|    0.012009|
|         719|   -5.474858|   -8.240136|    0.824035|    0.012009|
|         720|   -5.496962|   -8.241033|    0.824036|    0.012009|
|         721|   -5.517981|   -8.241212|    0.824037|    0.012009|
|         722|   -5.537058|   -8.240749|    0.824037|    0.012009|
|         723|   -5.555002|   -8.239702|    0.824038|    0.012009|
|         724|   -5.573123|   -8.238118|    0.824038|    0.012009|
|         725|   -5.592119|   -8.236068|    0.824039|    0.012010|
|         726|   -5.611701|   -8.233640|    0.824039|    0.012010|
|         727|   -5.630858|   -8.230935|    0.824039|    0.012010|
|         728|   -5.648363|   -8.228067|    0.824040|    0.012010|
|         729|   -5.663197|   -8.225145|    0.824040|    0.012010|
|         730|   -5.674785|   -8.222271|    0.824040|    0.012010|
|         731|   -5.683101|   -8.219527|    0.824040|    0.012010|
|         732|   -5.688674|   -8.216989|    0.824041|    0.012011|
|         733|   -5.692490|   -8.214696|    0.824041|    0.012011|
|         734|   -5.695752|   -8.212670|    0.824041|    0.012011|
|         735|   -5.699602|   -8.210917|    0.824041|    0.012011|
|         736|   -5.704888|   -8.209423|    0.824041|    0.012011|
|         737|   -5.712046|   -8.208160|    0.824041|    0.012011|
|         738|   -5.721081|   -8.207093|    0.824041|    0.012012|
|         739|   -5.731590|   -8.206181|    0.824040|    0.012012|
|         740|   -5.742839|   -8.205385|    0.824040|    0.012012|
|         741|   -5.753879|   -8.204664|    0.824040|    0.012012|
|         742|   -5.763741|   -8.203985|    0.824040|    0.012012|
|         743|   -5.771680|   -8.203319|    0.824040|    0.012012|
|         744|   -5.777403|   -8.202642|    0.824039|    0.012012|
|         745|   -5.781149|   -8.201938|    0.824039|    0.012013|
|         746|   -5.783596|   -8.201194|    0.824039|    0.012013|
|         747|   -5.785628|   -8.200402|    0.824038|    0.012013|
|         748|   -5.788088|   -8.199558|    0.824038|    0.012013|
|         749|   -5.791595|   -8.198659|    0.824037|    0.012013|
|         750|   -5.796471|   -8.197704|    0.824037|    0.012013|
|         751|   -5.802739|   -8.196694|    0.824037|    0.012013|
|         752|   -5.810188|   -8.195630|    0.824036|    0.012013|
|         753|   -5.818454|   -8.194520|    0.824036|    0.012013|
|         754|   -5.827124|   -8.193365|    0.824035|    0.012014|
|         755|   -5.835828|   -8.192168|    0.824034|    0.012014|
|         756|   -5.844307|   -8.190934|    0.824034|    0.012014|
|         757|   -5.852451|   -8.189671|    0.824033|    0.012014|
|         758|   -5.860290|   -8.188389|    0.824033|    0.012014|
|         759|   -5.867963|   -8.187102|    0.824032|    0.012014|
|         760|   -5.875656|   -8.185828|    0.824031|    0.012014|
|         761|   -5.883558|   -8.184586|    0.824030|    0.012014|
|         762|   -5.891818|   -8.183400|    0.824030|    0.012014|
|         763|   -5.900531|   -8.182295|    0.824029|    0.012014|
|         764|   -5.909733|   -8.181299|    0.824028|    0.012014|
|         765|   -5.919415|   -8.180443|    0.824027|    0.012014|
|         766|   -5.929538|   -8.179756|    0.824027|    0.012014|
|         767|   -5.940050|   -8.179267|    0.824026|    0.012014|
|         768|   -5.950899|   -8.179005|    0.824025|    0.012014|
|         769|   -5.962038|   -8.178995|    0.824024|    0.012014|
|         770|   -5.973430|   -8.179254|    0.824023|    0.012014|
|         771|   -5.985040|   -8.179796|    0.824022|    0.012014|
|         772|   -5.996832|   -8.180625|    0.824022|    0.012014|
|         773|   -6.008761|   -8.181735|    0.824021|    0.012014|
|         774|   -6.020768|   -8.183110|    0.824020|    0.012014|
|         775|   -6.032781|   -8.184724|    0.824019|    0.012014|
|         776|   -6.044710|   -8.186537|    0.824019|    0.012014|
|         777|   -6.056454|   -8.188500|    0.824018|    0.012014|
|         778|   -6.067903|   -8.190551|    0.824018|    0.012013|
|         779|   -6.078945|   -8.192621|    0.824017|    0.012013|
|         780|   -6.089467|   -8.194634|    0.824016|    0.012013|
|         781|   -6.099370|   -8.196511|    0.824016|    0.012013|
|         782|   -6.108562|   -8.198174|    0.824016|    0.012013|
|         783|   -6.116974|   -8.199549|    0.824015|    0.012013|
|         784|   -6.124557|   -8.200574|    0.824015|    0.012013|
|         785|   -6.131283|   -8.201200|    0.824015|    0.012013|
|         786|   -6.137153|   -8.201395|    0.824015|    0.012013|
|         787|   -6.142189|   -8.201149|    0.824015|    0.012013|
|         788|   -6.146438|   -8.200475|    0.824014|    0.012013|
|         789|   -6.149964|   -8.199407|    0.824014|    0.012012|
|         790|   -6.152846|   -8.197997|    0.824015|    0.012012|
|         791|   -6.155174|   -8.196318|    0.824015|    0.012012|
|         792|   -6.157042|   -8.194455|    0.824015|    0.012012|
|         793|   -6.158544|   -8.192500|    0.824015|    0.012012|
|         794|   -6.159770|   -8.190552|    0.824015|    0.012012|
|         795|   -6.160805|   -8.188709|    0.824016|    0.012012|
|         796|   -6.161726|   -8.187066|    0.824016|    0.012012|
|         797|   -6.162597|   -8.185708|    0.824017|    0.012012|
|         798|   -6.163475|   -8.184712|    0.824017|    0.012012|
|         799|   -6.164407|   -8.184144|    0.824018|    0.012011|
|         800|   -6.165429|   -8.184055|    0.824018|    0.012011|
|         801|   -6.166569|   -8.184483|    0.824019|    0.012010|
+-----------------------------------------------------------------------+
|Fixed CL Mode                           |Value                         |
+-----------------------------------------------------------------------+
|Current CL                              |0.824019                      |
|Target CL                               |0.824                         |
|Previous AOA                            |2.7806                        |
|Changed AoA by                          |-9.05548e-05                  |
+-----------------------------------------------------------------------+
+----------------------------------------------------------------+
|  Inner_Iter|    rms[Rho]|     rms[nu]|          CL|          CD|
+----------------------------------------------------------------+
|         802|   -4.236408|   -8.096059|    0.824019|    0.012010|
|         803|   -4.619838|   -8.137505|    0.824020|    0.012010|
|         804|   -4.860520|   -8.152607|    0.824021|    0.012010|
|         805|   -4.937382|   -8.162472|    0.824021|    0.012010|
|         806|   -4.990402|   -8.170715|    0.824022|    0.012010|
|         807|   -5.059637|   -8.178194|    0.824023|    0.012009|
|         808|   -5.145485|   -8.185180|    0.824023|    0.012009|
|         809|   -5.235793|   -8.191821|    0.824024|    0.012009|
|         810|   -5.314915|   -8.198174|    0.824025|    0.012009|
|         811|   -5.374628|   -8.204193|    0.824025|    0.012009|
|         812|   -5.415764|   -8.209821|    0.824026|    0.012009|
|         813|   -5.441102|   -8.215081|    0.824027|    0.012009|
|         814|   -5.453671|   -8.220053|    0.824027|    0.012009|
|         815|   -5.459104|   -8.224777|    0.824028|    0.012009|
|         816|   -5.464348|   -8.229223|    0.824029|    0.012009|
|         817|   -5.474316|   -8.233319|    0.824029|    0.012009|
|         818|   -5.490400|   -8.237015|    0.824030|    0.012009|
|         819|   -5.511012|   -8.240312|    0.824030|    0.012009|
|         820|   -5.533125|   -8.243254|    0.824031|    0.012009|
|         821|   -5.554141|   -8.245887|    0.824031|    0.012009|
|         822|   -5.573208|   -8.248239|    0.824032|    0.012009|
|         823|   -5.591147|   -8.250319|    0.824032|    0.012009|
|         824|   -5.609290|   -8.252116|    0.824032|    0.012009|
|         825|   -5.628362|   -8.253644|    0.824033|    0.012009|
|         826|   -5.648103|   -8.254931|    0.824033|    0.012009|
|         827|   -5.667525|   -8.256021|    0.824033|    0.012009|
|         828|   -5.685408|   -8.256974|    0.824034|    0.012009|
|         829|   -5.700718|   -8.257858|    0.824034|    0.012009|
|         830|   -5.712845|   -8.258738|    0.824034|    0.012009|
|         831|   -5.721722|   -8.259674|    0.824034|    0.012009|
|         832|   -5.727852|   -8.260719|    0.824034|    0.012009|
|         833|   -5.732207|   -8.261902|    0.824034|    0.012009|
|         834|   -5.736007|   -8.263240|    0.824034|    0.012009|
|         835|   -5.740420|   -8.264733|    0.824035|    0.012009|
|         836|   -5.746330|   -8.266362|    0.824035|    0.012010|
|         837|   -5.754208|   -8.268100|    0.824034|    0.012010|
|         838|   -5.764081|   -8.269909|    0.824034|    0.012010|
|         839|   -5.775559|   -8.271749|    0.824034|    0.012010|
|         840|   -5.787895|   -8.273576|    0.824034|    0.012010|
|         841|   -5.800101|   -8.275351|    0.824034|    0.012010|
|         842|   -5.811142|   -8.277038|    0.824034|    0.012010|
|         843|   -5.820200|   -8.278609|    0.824034|    0.012010|
|         844|   -5.826916|   -8.280044|    0.824033|    0.012010|
|         845|   -5.831502|   -8.281329|    0.824033|    0.012010|
|         846|   -5.834652|   -8.282455|    0.824033|    0.012010|
|         847|   -5.837297|   -8.283416|    0.824033|    0.012010|
|         848|   -5.840341|   -8.284212|    0.824032|    0.012010|
|         849|   -5.844458|   -8.284841|    0.824032|    0.012011|
|         850|   -5.850008|   -8.285306|    0.824032|    0.012011|
|         851|   -5.857036|   -8.285609|    0.824031|    0.012011|
|         852|   -5.865329|   -8.285751|    0.824031|    0.012011|
|         853|   -5.874509|   -8.285738|    0.824030|    0.012011|
|         854|   -5.884135|   -8.285573|    0.824030|    0.012011|
|         855|   -5.893806|   -8.285259|    0.824029|    0.012011|
|         856|   -5.903239|   -8.284799|    0.824029|    0.012011|
|         857|   -5.912308|   -8.284201|    0.824028|    0.012011|
|         858|   -5.921048|   -8.283476|    0.824028|    0.012011|
|         859|   -5.929610|   -8.282645|    0.824027|    0.012011|
|         860|   -5.938206|   -8.281730|    0.824027|    0.012011|
|         861|   -5.947055|   -8.280759|    0.824026|    0.012011|
|         862|   -5.956336|   -8.279769|    0.824025|    0.012012|
|         863|   -5.966166|   -8.278798|    0.824025|    0.012012|
|         864|   -5.976604|   -8.277891|    0.824024|    0.012012|
|         865|   -5.987656|   -8.277097|    0.824023|    0.012012|
|         866|   -5.999294|   -8.276465|    0.824022|    0.012012|
|         867|   -6.011480|   -8.276046|    0.824022|    0.012012|
|         868|   -6.024171|   -8.275888|    0.824021|    0.012012|
|         869|   -6.037335|   -8.276036|    0.824020|    0.012012|
|         870|   -6.050948|   -8.276529|    0.824019|    0.012012|
|         871|   -6.064995|   -8.277399|    0.824019|    0.012012|
|         872|   -6.079455|   -8.278664|    0.824018|    0.012012|
|         873|   -6.094300|   -8.280335|    0.824017|    0.012012|
|         874|   -6.109485|   -8.282405|    0.824016|    0.012012|
|         875|   -6.124945|   -8.284854|    0.824016|    0.012012|
|         876|   -6.140588|   -8.287646|    0.824015|    0.012012|
|         877|   -6.156302|   -8.290730|    0.824014|    0.012012|
|         878|   -6.171951|   -8.294035|    0.824014|    0.012012|
|         879|   -6.187383|   -8.297479|    0.824013|    0.012012|
|         880|   -6.202430|   -8.300966|    0.824013|    0.012012|
|         881|   -6.216921|   -8.304393|    0.824012|    0.012012|
|         882|   -6.230681|   -8.307648|    0.824012|    0.012012|
|         883|   -6.243545|   -8.310625|    0.824011|    0.012012|
|         884|   -6.255365|   -8.313222|    0.824011|    0.012012|
|         885|   -6.266020|   -8.315353|    0.824011|    0.012012|
|         886|   -6.275420|   -8.316950|    0.824011|    0.012012|
|         887|   -6.283519|   -8.317975|    0.824010|    0.012012|
|         888|   -6.290313|   -8.318414|    0.824010|    0.012012|
|         889|   -6.295843|   -8.318287|    0.824010|    0.012012|
|         890|   -6.300188|   -8.317644|    0.824010|    0.012012|
|         891|   -6.303460|   -8.316558|    0.824010|    0.012012|
|         892|   -6.305795|   -8.315128|    0.824010|    0.012012|
|         893|   -6.307341|   -8.313466|    0.824010|    0.012012|
|         894|   -6.308249|   -8.311693|    0.824010|    0.012012|
|         895|   -6.308669|   -8.309932|    0.824011|    0.012012|
|         896|   -6.308739|   -8.308305|    0.824011|    0.012012|
|         897|   -6.308585|   -8.306922|    0.824011|    0.012012|
|         898|   -6.308318|   -8.305883|    0.824011|    0.012012|
|         899|   -6.308032|   -8.305273|    0.824012|    0.012012|
|         900|   -6.307805|   -8.305159|    0.824012|    0.012012|
|         901|   -6.307703|   -8.305589|    0.824012|    0.012011|
+-----------------------------------------------------------------------+
|Fixed CL Mode                           |Value                         |
+-----------------------------------------------------------------------+
|Current CL                              |0.824012                      |
|Target CL                               |0.824                         |
|Previous AOA                            |2.78051                       |
[...]
|        5298|   -6.044514|   -7.951775|    0.824238|    0.012015|
|        5299|   -6.051397|   -7.955557|    0.824238|    0.012015|
|        5300|   -6.057857|   -7.959356|    0.824238|    0.012015|
|        5301|   -6.063855|   -7.963185|    0.824238|    0.012015|
|        5302|   -6.069365|   -7.967053|    0.824238|    0.012015|
|        5303|   -6.074372|   -7.970967|    0.824238|    0.012015|
|        5304|   -6.078874|   -7.974932|    0.824238|    0.012015|
|        5305|   -6.082884|   -7.978947|    0.824239|    0.012015|
|        5306|   -6.086424|   -7.983015|    0.824239|    0.012015|
|        5307|   -6.089529|   -7.987134|    0.824239|    0.012015|
|        5308|   -6.092244|   -7.991307|    0.824239|    0.012015|
|        5309|   -6.094618|   -7.995532|    0.824239|    0.012015|
|        5310|   -6.096710|   -7.999810|    0.824239|    0.012015|
|        5311|   -6.098579|   -8.004144|    0.824239|    0.012015|
|        5312|   -6.100285|   -8.008536|    0.824239|    0.012015|
|        5313|   -6.101889|   -8.012989|    0.824239|    0.012015|
|        5314|   -6.103450|   -8.017509|    0.824240|    0.012015|
|        5315|   -6.105023|   -8.022102|    0.824240|    0.012015|
|        5316|   -6.106657|   -8.026773|    0.824240|    0.012015|
|        5317|   -6.108398|   -8.031531|    0.824240|    0.012015|
|        5318|   -6.110284|   -8.036383|    0.824240|    0.012015|
|        5319|   -6.112348|   -8.041335|    0.824240|    0.012015|
|        5320|   -6.114616|   -8.046395|    0.824240|    0.012015|
|        5321|   -6.117105|   -8.051567|    0.824240|    0.012015|
|        5322|   -6.119828|   -8.056858|    0.824241|    0.012015|
|        5323|   -6.122790|   -8.062269|    0.824241|    0.012015|
|        5324|   -6.125988|   -8.067801|    0.824241|    0.012016|
|        5325|   -6.129413|   -8.073455|    0.824241|    0.012016|
|        5326|   -6.133051|   -8.079228|    0.824241|    0.012016|
|        5327|   -6.136880|   -8.085114|    0.824241|    0.012016|
|        5328|   -6.140873|   -8.091107|    0.824242|    0.012016|
|        5329|   -6.144998|   -8.097200|    0.824242|    0.012016|
|        5330|   -6.149218|   -8.103380|    0.824242|    0.012016|
|        5331|   -6.153494|   -8.109635|    0.824242|    0.012016|
|        5332|   -6.157782|   -8.115954|    0.824242|    0.012016|
|        5333|   -6.162040|   -8.122322|    0.824242|    0.012016|
|        5334|   -6.166223|   -8.128727|    0.824242|    0.012016|
|        5335|   -6.170288|   -8.135154|    0.824243|    0.012017|
|        5336|   -6.174196|   -8.141589|    0.824243|    0.012017|
|        5337|   -6.177911|   -8.148019|    0.824243|    0.012017|
|        5338|   -6.181403|   -8.154425|    0.824243|    0.012017|
|        5339|   -6.184648|   -8.160797|    0.824243|    0.012017|
|        5340|   -6.187632|   -8.167125|    0.824243|    0.012017|
|        5341|   -6.190345|   -8.173399|    0.824243|    0.012017|
|        5342|   -6.192790|   -8.179610|    0.824244|    0.012017|
|        5343|   -6.194977|   -8.185753|    0.824244|    0.012017|
|        5344|   -6.196922|   -8.191823|    0.824244|    0.012017|
|        5345|   -6.198652|   -8.197816|    0.824244|    0.012017|
|        5346|   -6.200199|   -8.203731|    0.824244|    0.012017|
|        5347|   -6.201598|   -8.209567|    0.824244|    0.012017|
|        5348|   -6.202892|   -8.215323|    0.824244|    0.012017|
|        5349|   -6.204123|   -8.221002|    0.824244|    0.012018|
|        5350|   -6.205336|   -8.226603|    0.824244|    0.012018|
|        5351|   -6.206577|   -8.232129|    0.824244|    0.012018|
|        5352|   -6.207889|   -8.237583|    0.824244|    0.012018|
|        5353|   -6.209315|   -8.242966|    0.824245|    0.012018|
|        5354|   -6.210892|   -8.248280|    0.824245|    0.012018|
|        5355|   -6.212658|   -8.253531|    0.824245|    0.012018|
|        5356|   -6.214644|   -8.258724|    0.824245|    0.012018|
|        5357|   -6.216877|   -8.263857|    0.824245|    0.012018|
|        5358|   -6.219380|   -8.268929|    0.824245|    0.012018|
|        5359|   -6.222172|   -8.273940|    0.824245|    0.012018|
|        5360|   -6.225266|   -8.278891|    0.824245|    0.012018|
|        5361|   -6.228671|   -8.283779|    0.824245|    0.012018|
|        5362|   -6.232389|   -8.288606|    0.824245|    0.012018|
|        5363|   -6.236419|   -8.293371|    0.824245|    0.012018|
|        5364|   -6.240755|   -8.298080|    0.824245|    0.012018|
|        5365|   -6.245384|   -8.302732|    0.824245|    0.012018|
|        5366|   -6.250289|   -8.307326|    0.824245|    0.012018|
|        5367|   -6.255449|   -8.311859|    0.824245|    0.012018|
|        5368|   -6.260836|   -8.316330|    0.824245|    0.012018|
|        5369|   -6.266419|   -8.320737|    0.824245|    0.012018|
|        5370|   -6.272164|   -8.325080|    0.824245|    0.012018|
|        5371|   -6.278028|   -8.329357|    0.824245|    0.012018|
|        5372|   -6.283971|   -8.333568|    0.824245|    0.012018|
|        5373|   -6.289944|   -8.337713|    0.824245|    0.012018|
|        5374|   -6.295900|   -8.341795|    0.824245|    0.012017|
|        5375|   -6.301789|   -8.345815|    0.824245|    0.012017|
|        5376|   -6.307562|   -8.349776|    0.824245|    0.012017|
|        5377|   -6.313170|   -8.353683|    0.824244|    0.012017|
|        5378|   -6.318563|   -8.357541|    0.824244|    0.012017|
|        5379|   -6.323700|   -8.361353|    0.824244|    0.012017|
|        5380|   -6.328538|   -8.365126|    0.824244|    0.012017|
|        5381|   -6.333044|   -8.368864|    0.824244|    0.012017|
|        5382|   -6.337191|   -8.372573|    0.824244|    0.012017|
|        5383|   -6.340958|   -8.376262|    0.824244|    0.012017|
|        5384|   -6.344332|   -8.379938|    0.824244|    0.012017|
|        5385|   -6.347308|   -8.383610|    0.824244|    0.012017|
|        5386|   -6.349889|   -8.387286|    0.824245|    0.012017|
|        5387|   -6.352085|   -8.390976|    0.824245|    0.012016|
|        5388|   -6.353910|   -8.394685|    0.824245|    0.012016|
|        5389|   -6.355386|   -8.398420|    0.824245|    0.012016|
|        5390|   -6.356535|   -8.402185|    0.824245|    0.012016|
|        5391|   -6.357386|   -8.405983|    0.824245|    0.012016|
|        5392|   -6.357968|   -8.409813|    0.824245|    0.012016|
|        5393|   -6.358308|   -8.413676|    0.824245|    0.012016|
|        5394|   -6.358437|   -8.417569|    0.824245|    0.012016|
|        5395|   -6.358383|   -8.421488|    0.824245|    0.012016|
|        5396|   -6.358170|   -8.425426|    0.824245|    0.012016|
|        5397|   -6.357824|   -8.429376|    0.824245|    0.012015|
|        5398|   -6.357364|   -8.433329|    0.824246|    0.012015|
|        5399|   -6.356810|   -8.437276|    0.824246|    0.012015|
|        5400|   -6.356177|   -8.441206|    0.824246|    0.012015|
|        5401|   -6.355478|   -8.445106|    0.824246|    0.012015|
|        5402|   -6.354724|   -8.448966|    0.824246|    0.012015|
|        5403|   -6.353923|   -8.452772|    0.824246|    0.012015|
|        5404|   -6.353081|   -8.456513|    0.824246|    0.012015|
|        5405|   -6.352204|   -8.460178|    0.824247|    0.012015|
|        5406|   -6.351295|   -8.463756|    0.824247|    0.012015|
|        5407|   -6.350358|   -8.467239|    0.824247|    0.012014|
|        5408|   -6.349393|   -8.470617|    0.824247|    0.012014|
|        5409|   -6.348404|   -8.473884|    0.824247|    0.012014|
|        5410|   -6.347392|   -8.477036|    0.824247|    0.012014|
|        5411|   -6.346360|   -8.480068|    0.824247|    0.012014|
|        5412|   -6.345308|   -8.482978|    0.824248|    0.012014|
|        5413|   -6.344241|   -8.485764|    0.824248|    0.012014|
|        5414|   -6.343161|   -8.488426|    0.824248|    0.012014|
|        5415|   -6.342071|   -8.490963|    0.824248|    0.012014|
|        5416|   -6.340978|   -8.493376|    0.824248|    0.012014|
|        5417|   -6.339884|   -8.495665|    0.824248|    0.012014|
|        5418|   -6.338797|   -8.497831|    0.824248|    0.012014|
|        5419|   -6.337722|   -8.499873|    0.824249|    0.012014|
|        5420|   -6.336668|   -8.501791|    0.824249|    0.012014|
|        5421|   -6.335642|   -8.503584|    0.824249|    0.012014|
|        5422|   -6.334654|   -8.505252|    0.824249|    0.012013|
|        5423|   -6.333712|   -8.506793|    0.824249|    0.012013|
|        5424|   -6.332827|   -8.508205|    0.824249|    0.012013|
|        5425|   -6.332011|   -8.509486|    0.824249|    0.012013|
|        5426|   -6.331275|   -8.510635|    0.824249|    0.012013|
|        5427|   -6.330632|   -8.511651|    0.824249|    0.012013|
|        5428|   -6.330096|   -8.512534|    0.824250|    0.012013|
|        5429|   -6.329679|   -8.513287|    0.824250|    0.012013|
|        5430|   -6.329395|   -8.513912|    0.824250|    0.012013|
|        5431|   -6.329259|   -8.514416|    0.824250|    0.012013|
|        5432|   -6.329286|   -8.514805|    0.824250|    0.012013|
|        5433|   -6.329489|   -8.515083|    0.824250|    0.012013|
|        5434|   -6.329883|   -8.515258|    0.824250|    0.012013|
|        5435|   -6.330482|   -8.515338|    0.824250|    0.012013|
|        5436|   -6.331299|   -8.515331|    0.824250|    0.012013|
|        5437|   -6.332347|   -8.515248|    0.824250|    0.012013|
|        5438|   -6.333636|   -8.515099|    0.824250|    0.012014|
|        5439|   -6.335177|   -8.514896|    0.824250|    0.012014|
|        5440|   -6.336979|   -8.514651|    0.824250|    0.012014|
|        5441|   -6.339047|   -8.514375|    0.824250|    0.012014|
|        5442|   -6.341388|   -8.514081|    0.824250|    0.012014|
|        5443|   -6.344002|   -8.513781|    0.824250|    0.012014|
|        5444|   -6.346892|   -8.513485|    0.824250|    0.012014|
|        5445|   -6.350053|   -8.513204|    0.824250|    0.012014|
|        5446|   -6.353481|   -8.512949|    0.824250|    0.012014|
|        5447|   -6.357167|   -8.512727|    0.824250|    0.012014|
|        5448|   -6.361099|   -8.512548|    0.824250|    0.012014|
|        5449|   -6.365262|   -8.512417|    0.824250|    0.012014|
|        5450|   -6.369638|   -8.512340|    0.824250|    0.012014|
|        5451|   -6.374204|   -8.512321|    0.824250|    0.012014|
|        5452|   -6.378934|   -8.512364|    0.824250|    0.012014|
|        5453|   -6.383799|   -8.512470|    0.824250|    0.012014|
|        5454|   -6.388765|   -8.512639|    0.824250|    0.012015|
|        5455|   -6.393797|   -8.512872|    0.824250|    0.012015|
|        5456|   -6.398855|   -8.513168|    0.824249|    0.012015|
|        5457|   -6.403897|   -8.513524|    0.824249|    0.012015|
|        5458|   -6.408879|   -8.513937|    0.824249|    0.012015|
|        5459|   -6.413757|   -8.514404|    0.824249|    0.012015|
|        5460|   -6.418484|   -8.514922|    0.824249|    0.012015|
|        5461|   -6.423016|   -8.515486|    0.824249|    0.012015|
|        5462|   -6.427308|   -8.516093|    0.824249|    0.012015|
|        5463|   -6.431319|   -8.516738|    0.824249|    0.012015|
|        5464|   -6.435012|   -8.517418|    0.824249|    0.012015|
|        5465|   -6.438354|   -8.518128|    0.824249|    0.012015|
|        5466|   -6.441316|   -8.518865|    0.824248|    0.012015|
|        5467|   -6.443879|   -8.519625|    0.824248|    0.012015|
|        5468|   -6.446029|   -8.520405|    0.824248|    0.012016|
|        5469|   -6.447758|   -8.521202|    0.824248|    0.012016|
|        5470|   -6.449069|   -8.522013|    0.824248|    0.012016|
|        5471|   -6.449970|   -8.522836|    0.824248|    0.012016|
|        5472|   -6.450476|   -8.523669|    0.824247|    0.012016|
|        5473|   -6.450609|   -8.524510|    0.824247|    0.012016|
|        5474|   -6.450398|   -8.525357|    0.824247|    0.012016|
|        5475|   -6.449875|   -8.526210|    0.824247|    0.012016|
|        5476|   -6.449077|   -8.527067|    0.824247|    0.012016|
|        5477|   -6.448040|   -8.527928|    0.824247|    0.012016|
|        5478|   -6.446805|   -8.528792|    0.824246|    0.012016|
|        5479|   -6.445412|   -8.529658|    0.824246|    0.012016|
|        5480|   -6.443902|   -8.530525|    0.824246|    0.012016|
|        5481|   -6.442315|   -8.531394|    0.824246|    0.012016|
|        5482|   -6.440687|   -8.532265|    0.824246|    0.012016|
|        5483|   -6.439057|   -8.533137|    0.824245|    0.012016|
|        5484|   -6.437457|   -8.534012|    0.824245|    0.012016|
|        5485|   -6.435919|   -8.534892|    0.824245|    0.012016|
|        5486|   -6.434471|   -8.535777|    0.824245|    0.012016|
|        5487|   -6.433140|   -8.536669|    0.824245|    0.012016|
|        5488|   -6.431949|   -8.537572|    0.824245|    0.012016|
|        5489|   -6.430917|   -8.538488|    0.824244|    0.012016|
|        5490|   -6.430061|   -8.539420|    0.824244|    0.012016|
|        5491|   -6.429397|   -8.540371|    0.824244|    0.012016|
|        5492|   -6.428938|   -8.541346|    0.824244|    0.012016|
|        5493|   -6.428692|   -8.542347|    0.824244|    0.012016|
|        5494|   -6.428669|   -8.543380|    0.824244|    0.012016|
|        5495|   -6.428873|   -8.544448|    0.824244|    0.012016|
|        5496|   -6.429309|   -8.545555|    0.824243|    0.012016|
|        5497|   -6.429980|   -8.546707|    0.824243|    0.012016|
|        5498|   -6.430887|   -8.547909|    0.824243|    0.012016|
|        5499|   -6.432028|   -8.549163|    0.824243|    0.012002|
+-----------------------------------------------------------------------+
|Fixed CL Mode (Finite Difference)       |Value                         |
+-----------------------------------------------------------------------+
|Delta CL / Delta AoA                    |0.243156                      |
|Delta CD / Delta CL                     |0.0182702                     |
|Delta CMz / Delta CL                    |0.00709353                    |
+-----------------------------------------------------------------------+
Writing Flow Meta-Data file: flow.meta

----------------------------- Solver Exit -------------------------------

Maximum number of iterations reached (ITER = 5500) before convergence.
+-----------------------------------------------------------------------+
|      Convergence Field     |     Value    |   Criterion  |  Converged |
+-----------------------------------------------------------------------+
|                    rms[Rho]|      -6.43203|         < -12|          No|
+-----------------------------------------------------------------------+
-------------------------------------------------------------------------

--------------------------- Finalizing Solver ---------------------------
Deleted CNumerics container.
Deleted CIntegration container.
Deleted CSolver container.
Deleted CIteration container.
Deleted CInterface container.
Deleted CGeometry container.
Deleted CFreeFormDefBox class.
Deleted CSurfaceMovement class.
Deleted CVolumetricMovement class.
Deleted CConfig container.
Deleted nInst container.
Deleted COutput class.
-------------------------------------------------------------------------

------------------------- Exit Success (SU2_CFD) ------------------------


-------------------------------------------------------------------------
|    ___ _   _ ___                                                      |
|   / __| | | |_  )   Release 8.0.0 "Harrier"                           |
|   \__ \ |_| |/ /                                                      |
|   |___/\___//___|   Suite (Solution Exporting Code)                   |
|                                                                       |
-------------------------------------------------------------------------
| SU2 Project Website: https://su2code.github.io                        |
|                                                                       |
| The SU2 Project is maintained by the SU2 Foundation                   |
| (http://su2foundation.org)                                            |
-------------------------------------------------------------------------
| Copyright 2012-2023, SU2 Contributors                                 |
|                                                                       |
| SU2 is free software; you can redistribute it and/or                  |
| modify it under the terms of the GNU Lesser General Public            |
| License as published by the Free Software Foundation; either          |
| version 2.1 of the License, or (at your option) any later version.    |
|                                                                       |
| SU2 is distributed in the hope that it will be useful,                |
| but WITHOUT ANY WARRANTY; without even the implied warranty of        |
| MERCHANTABILITY or FITNESS FOR A PARTICULAR PURPOSE. See the GNU      |
| Lesser General Public License for more details.                       |
|                                                                       |
| You should have received a copy of the GNU Lesser General Public      |
| License along with SU2. If not, see <http://www.gnu.org/licenses/>.   |
-------------------------------------------------------------------------

----------------- Physical Case Definition ( Zone 0 ) -------------------
Input mesh file name: mesh_RAE2822_turb_deform.su2

-------------------- Output Information ( Zone 0 ) ----------------------
The tabular file format is CSV (.csv).
Flow variables file name: flow.

------------- Config File Boundary Information ( Zone 0 ) ---------------
+-----------------------------------------------------------------------+
|                        Marker Type|                        Marker Name|
+-----------------------------------------------------------------------+
|                          Far-field|                           FARFIELD|
+-----------------------------------------------------------------------+
|                     Heat flux wall|                            AIRFOIL|
+-----------------------------------------------------------------------+
Two dimensional problem.
13937 grid points before partitioning.
22842 volume elements before partitioning.
2 surface markers.
192 boundary elements in index 0 (Marker = AIRFOIL).
40 boundary elements in index 1 (Marker = FARFIELD).
Executing the partitioning functions.
Building the graph adjacency structure.
Calling ParMETIS... graph partitioning complete (831 edge cuts).
Distributing ParMETIS coloring.
Rebalancing vertices.
Rebalancing volume element connectivity.
Rebalancing markers and surface elements.
14875 vertices including ghost points. 
23674 interior elements including halo cells. 
18780 triangles.
4894 quadrilaterals.
Establishing MPI communication patterns.
Identify vertices.
Storing a mapping from global to local point index.

------------------------- Solution Postprocessing -----------------------
Reading and storing the solution from restart_flow.
Volume output fields: COORDINATES, SOLUTION
  Info: Ignoring the following screen output fields:
  RMS_DENSITY, RMS_NU_TILDE, LIFT, DRAG
Screen output fields: INNER_ITER
  Info: Ignoring the following history output groups:
  RMS_RES, AERO_COEFF
History output group(s): ITER
Warning: No (valid) fields chosen for convergence monitoring. Convergence monitoring inactive.
Warning: No (valid) fields chosen for time convergence monitoring. Time convergence monitoring inactive.
|Paraview                           |flow.vtu                           |
|Paraview surface                   |surface_flow.vtu                   |
|CSV file                           |surface_flow.csv                   |

------------------------- Finalize Solver -------------------------
Deleted CGeometry container.
Deleted CSolver class.
Deleted CConfig container.
Deleted COutput class.

Completed in 0.015004 seconds on 6 cores.

------------------------- Exit Success (SU2_SOL) ------------------------

