
-------------------------------------------------------------------------
|    ___ _   _ ___                                                      |
|   / __| | | |_  )   Release 8.0.0 "Harrier"                           |
|   \__ \ |_| |/ /                                                      |
|   |___/\___//___|   Suite (Computational Fluid Dynamics Code)         |
|                                                                       |
-------------------------------------------------------------------------
| SU2 Project Website: https://su2code.github.io                        |
|                                                                       |
| The SU2 Project is maintained by the SU2 Foundation                   |
| (http://su2foundation.org)                                            |
-------------------------------------------------------------------------
| Copyright 2012-2023, SU2 Contributors                                 |
|                                                                       |
| SU2 is free software; you can redistribute it and/or                  |
| modify it under the terms of the GNU Lesser General Public            |
| License as published by the Free Software Foundation; either          |
| version 2.1 of the License, or (at your option) any later version.    |
|                                                                       |
| SU2 is distributed in the hope that it will be useful,                |
| but WITHOUT ANY WARRANTY; without even the implied warranty of        |
| MERCHANTABILITY or FITNESS FOR A PARTICULAR PURPOSE. See the GNU      |
| Lesser General Public License for more details.                       |
|                                                                       |
| You should have received a copy of the GNU Lesser General Public      |
| License along with SU2. If not, see <http://www.gnu.org/licenses/>.   |
-------------------------------------------------------------------------

Parsing config file for zone 0

----------------- Physical Case Definition ( Zone 0 ) -------------------
Compressible RANS equations.
Turbulence model: Spalart-Allmaras-noft2
Hybrid RANS/LES: No Hybrid RANS/LES
Mach number: 0.734.
Angle of attack (AoA): 2.31 deg, and angle of sideslip (AoS): 0 deg.
Reynolds number: 6.5e+06. Reference length 1.
Fixed CL mode, target value: 0.824.
Reading and writing binary SU2 native restart files.
Read flow solution from: solution_flow.dat.
Dimensional simulation.
The reference area is 1 m^2.
The semi-span will be computed using the max y(3D) value.
The reference length is 1 m.
Reference origin for moment evaluation is (0.25, 0, 0).
Surface(s) where the force coefficients are evaluated: AIRFOIL.

Surface(s) plotted in the output file: AIRFOIL.
Surface(s) affected by the design variables: AIRFOIL.
Input mesh file name: mesh_RAE2822_turb_deform.su2

--------------- Space Numerical Integration ( Zone 0 ) ------------------
Jameson-Schmidt-Turkel scheme (2nd order in space) for the flow inviscid terms.
JST viscous coefficients (2nd & 4th): 0.5, 0.02.
The method includes a grid stretching correction (p = 0.3).
Scalar upwind solver for the turbulence model.
First order integration in space.
Average of gradients with correction (viscous flow terms).
Average of gradients with correction (viscous turbulence terms).
Gradient for viscous and source terms: inverse-distance weighted Least-Squares.

--------------- Time Numerical Integration  ( Zone 0 ) ------------------
Local time stepping (steady state simulation).
Euler implicit method for the flow equations.
FGMRES is used for solving the linear system.
Using a ILU(0) preconditioning.
Convergence criteria of the linear solver: 1e-06.
Max number of linear iterations: 10.
No CFL adaptation.
Courant-Friedrichs-Lewy number:       10
Euler implicit time integration for the turbulence model.

------------------ Convergence Criteria  ( Zone 0 ) ---------------------
Maximum number of solver subiterations: 5500.
Begin convergence monitoring at iteration 10.
Residual minimum value: 1e-12.
Cauchy series min. value: 1e-06.
Number of Cauchy elements: 100.
Begin windowed time average at iteration 0.

-------------------- Output Information ( Zone 0 ) ----------------------
File writing frequency: 
+------------------------------------+
|                     File| Frequency|
+------------------------------------+
|                  RESTART|     10000|
|                 PARAVIEW|     10000|
|         SURFACE_PARAVIEW|     10000|
|              SURFACE_CSV|     10000|
+------------------------------------+
Writing the convergence history file every 1 inner iterations.
Writing the screen convergence history every 1 inner iterations.
The tabular file format is CSV (.csv).
Convergence history file name: history_direct.
Forces breakdown file name: forces_breakdown.dat.
Surface file name: surface_flow.
Volume file name: flow.
Restart file name: restart_flow.dat.

------------- Config File Boundary Information ( Zone 0 ) ---------------
+-----------------------------------------------------------------------+
|                        Marker Type|                        Marker Name|
+-----------------------------------------------------------------------+
|                          Far-field|                           FARFIELD|
+-----------------------------------------------------------------------+
|                     Heat flux wall|                            AIRFOIL|
+-----------------------------------------------------------------------+

-------------------- Output Preprocessing ( Zone 0 ) --------------------

WARNING: SURFACE_PRESSURE_DROP can only be computed for at least 2 surfaces (outlet, inlet, ...)

Screen output fields: INNER_ITER, RMS_DENSITY, RMS_NU_TILDE, LIFT, DRAG
History output group(s): ITER, RMS_RES, AERO_COEFF
Convergence field(s): RMS_DENSITY
Warning: No (valid) fields chosen for time convergence monitoring. Time convergence monitoring inactive.
Volume output fields: COORDINATES, SOLUTION, PRIMITIVE

------------------- Geometry Preprocessing ( Zone 0 ) -------------------
Two dimensional problem.
13937 grid points before partitioning.
22842 volume elements before partitioning.
2 surface markers.
192 boundary elements in index 0 (Marker = AIRFOIL).
40 boundary elements in index 1 (Marker = FARFIELD).
Executing the partitioning functions.
Building the graph adjacency structure.
Calling ParMETIS... graph partitioning complete (831 edge cuts).
Distributing ParMETIS coloring.
Rebalancing vertices.
Rebalancing volume element connectivity.
Rebalancing markers and surface elements.
14875 vertices including ghost points. 
23674 interior elements including halo cells. 
18780 triangles.
4894 quadrilaterals.
Establishing MPI communication patterns.
Setting point connectivity.
Renumbering points (Reverse Cuthill McKee Ordering).
Recomputing point connectivity.
Setting element connectivity.
Checking the numerical grid orientation.
All volume elements are correctly orientend.
All surface elements are correctly orientend.
Identifying edges and vertices.
Setting the control volume structure.
Area of the computational grid: 32209.9.
Searching for the closest normal neighbors to the surfaces.
Storing a mapping from global to local point index.
Compute the surface curvature.
Max K: 190.055. Mean K: 8.10973. Standard deviation K: 25.5979.
Checking for periodicity.
Computing mesh quality statistics for the dual control volumes.
+--------------------------------------------------------------+
|           Mesh Quality Metric|        Minimum|        Maximum|
+--------------------------------------------------------------+
|    Orthogonality Angle (deg.)|        74.8497|        89.9999|
|     CV Face Area Aspect Ratio|        1.00526|         3358.4|
|           CV Sub-Volume Ratio|        1.00047|        1218.27|
+--------------------------------------------------------------+
Finding max control volume width.
Communicating number of neighbors.
Wetted area = 2.02141 m.
Area projection in the x-plane = 0.126341 m, y-plane = 0.995873 m.
Max. coordinate in the x-direction = 1 m, y-direction = 0.0619946 m.
Min. coordinate in the x-direction = 0 m, y-direction = -0.0608826 m.
Computing wall distances.

-------------------- Solver Preprocessing ( Zone 0 ) --------------------
WARNING: AoA in the solution file (2.78004 deg.) +
         AoA offset in mesh file (0 deg.) = 2.78004 deg.
WARNING: SU2 will use the dCD/dCL provided in the direct solution file: 0.0184959.
WARNING: SU2 will use the dCMz/dCL provided in the direct solution file: 0.00989176.
Viscous flow: Computing pressure using the ideal gas law
based on the free-stream temperature and a density computed
from the Reynolds number.
Force coefficients computed using free-stream values.

-- Models:
+------------------------------------------------------------------------------+
|          Viscosity Model|        Conductivity Model|              Fluid Model|
+------------------------------------------------------------------------------+
|               SUTHERLAND|          CONSTANT_PRANDTL|             STANDARD_AIR|
+------------------------------------------------------------------------------+
-- Fluid properties:
+------------------------------------------------------------------------------+
|                  Name|    Dim. value|    Ref. value|      Unit|Non-dim. value|
+------------------------------------------------------------------------------+
|        Ref. Viscosity|     1.716e-05|             1|   N.s/m^2|     1.716e-05|
|      Sutherland Temp.|        273.15|             1|         K|        273.15|
|     Sutherland Const.|         110.4|             1|         K|         110.4|
+------------------------------------------------------------------------------+
|        Prandtl (Lam.)|             -|             -|         -|          0.71|
|       Prandtl (Turb.)|             -|             -|         -|           0.9|
+------------------------------------------------------------------------------+
|          Gas Constant|       287.058|             1|  N.m/kg.K|       287.058|
|      Spec. Heat Ratio|             -|             -|         -|           1.4|
+------------------------------------------------------------------------------+
-- Initial and free-stream conditions:
+------------------------------------------------------------------------------+
|                  Name|    Dim. value|    Ref. value|      Unit|Non-dim. value|
+------------------------------------------------------------------------------+
|       Static Pressure|         38515|             1|        Pa|         38515|
|               Density|      0.465631|             1|    kg/m^3|      0.465631|
|           Temperature|        288.15|             1|         K|        288.15|
|          Total Energy|        237984|             1|   m^2/s^2|        237984|
|            Velocity-X|       249.484|             1|       m/s|       249.484|
|            Velocity-Y|       12.1147|             1|       m/s|       12.1147|
|    Velocity Magnitude|       249.778|             1|       m/s|       249.778|
+------------------------------------------------------------------------------+
|             Viscosity|    1.7893e-05|             1|   N.s/m^2|    1.7893e-05|
|          Conductivity|             -|             1|   W/m^2.K|             -|
|     Turb. Kin. Energy|       233.959|             1|   m^2/s^2|       233.959|
|     Spec. Dissipation|        608834|             1|       1/s|        608834|
+------------------------------------------------------------------------------+
|           Mach Number|             -|             -|         -|         0.734|
|       Reynolds Number|             -|             -|         -|       6.5e+06|
+------------------------------------------------------------------------------+
Initialize Jacobian structure (Navier-Stokes). MG level: 0.
Initialize Jacobian structure (SA model).

------------------- Numerics Preprocessing ( Zone 0 ) -------------------

----------------- Integration Preprocessing ( Zone 0 ) ------------------

------------------- Iteration Preprocessing ( Zone 0 ) ------------------
Euler/Navier-Stokes/RANS fluid iteration.

------------------------------ Begin Solver -----------------------------

Simulation Run using the Single-zone Driver
WARNING: SU2 was not compiled for an AVX-capable architecture. Performance could be better,
         see https://su2code.github.io/docs_v7/Build-SU2-Linux-MacOS/#compiler-optimizations
+----------------------------------------------------------------+
|  Inner_Iter|    rms[Rho]|     rms[nu]|          CL|          CD|
+----------------------------------------------------------------+
|           0|   -5.245548|   -6.655449|    0.824029|    0.012005|
|           1|   -5.301940|   -6.757769|    0.824042|    0.012011|
|           2|   -5.359917|   -6.888538|    0.824041|    0.012015|
|           3|   -5.401872|   -7.049418|    0.824035|    0.012017|
|           4|   -5.429088|   -7.228103|    0.824027|    0.012017|
|           5|   -5.444913|   -7.359308|    0.824022|    0.012017|
|           6|   -5.452350|   -7.369881|    0.824019|    0.012016|
|           7|   -5.454116|   -7.324621|    0.824019|    0.012015|
|           8|   -5.452211|   -7.283611|    0.824021|    0.012014|
|           9|   -5.447743|   -7.251047|    0.824025|    0.012014|
|          10|   -5.441171|   -7.218852|    0.824029|    0.012014|
|          11|   -5.432808|   -7.184689|    0.824034|    0.012015|
|          12|   -5.423174|   -7.152901|    0.824039|    0.012016|
|          13|   -5.412996|   -7.129182|    0.824044|    0.012017|
|          14|   -5.402998|   -7.117110|    0.824049|    0.012019|
|          15|   -5.393696|   -7.117753|    0.824053|    0.012020|
|          16|   -5.385336|   -7.130247|    0.824056|    0.012022|
|          17|   -5.377962|   -7.152140|    0.824057|    0.012024|
|          18|   -5.371554|   -7.179353|    0.824057|    0.012026|
|          19|   -5.366142|   -7.206247|    0.824056|    0.012027|
|          20|   -5.361863|   -7.226692|    0.824053|    0.012029|
|          21|   -5.358941|   -7.236531|    0.824049|    0.012030|
|          22|   -5.357600|   -7.235766|    0.824044|    0.012032|
|          23|   -5.357960|   -7.228043|    0.824037|    0.012033|
|          24|   -5.359955|   -7.217942|    0.824030|    0.012034|
|          25|   -5.363292|   -7.208791|    0.824023|    0.012035|
|          26|   -5.367466|   -7.202056|    0.824014|    0.012035|
|          27|   -5.371848|   -7.197703|    0.824006|    0.012036|
|          28|   -5.375803|   -7.194851|    0.823997|    0.012036|
|          29|   -5.378826|   -7.192414|    0.823988|    0.012036|
|          30|   -5.380637|   -7.189616|    0.823979|    0.012035|
|          31|   -5.381202|   -7.186261|    0.823971|    0.012035|
|          32|   -5.380686|   -7.182729|    0.823962|    0.012034|
|          33|   -5.379358|   -7.179755|    0.823954|    0.012033|
|          34|   -5.377508|   -7.178153|    0.823946|    0.012031|
|          35|   -5.375388|   -7.178604|    0.823938|    0.012029|
|          36|   -5.373187|   -7.181552|    0.823931|    0.012027|
|          37|   -5.371033|   -7.187182|    0.823924|    0.012025|
|          38|   -5.369005|   -7.195450|    0.823917|    0.012023|
|          39|   -5.367142|   -7.206120|    0.823911|    0.012020|
|          40|   -5.365447|   -7.218793|    0.823905|    0.012017|
|          41|   -5.363890|   -7.232911|    0.823899|    0.012015|
|          42|   -5.362417|   -7.247752|    0.823894|    0.012012|
|          43|   -5.360953|   -7.262416|    0.823890|    0.012009|
|          44|   -5.359417|   -7.275830|    0.823886|    0.012006|
|          45|   -5.357736|   -7.286826|    0.823883|    0.012004|
|          46|   -5.355849|   -7.294287|    0.823880|    0.012001|
|          47|   -5.353718|   -7.297383|    0.823879|    0.011999|
|          48|   -5.351318|   -7.295808|    0.823877|    0.011997|
|          49|   -5.348639|   -7.289898|    0.823877|    0.011995|
|          50|   -5.345674|   -7.280570|    0.823877|    0.011993|
|          51|   -5.342422|   -7.269096|    0.823878|    0.011991|
|          52|   -5.338880|   -7.256830|    0.823880|    0.011989|
|          53|   -5.335055|   -7.244995|    0.823882|    0.011988|
|          54|   -5.330958|   -7.234561|    0.823885|    0.011987|
|          55|   -5.326617|   -7.226203|    0.823889|    0.011985|
|          56|   -5.322071|   -7.220321|    0.823893|    0.011984|
|          57|   -5.317374|   -7.217068|    0.823897|    0.011983|
|          58|   -5.312588|   -7.216392|    0.823903|    0.011982|
|          59|   -5.307778|   -7.218071|    0.823908|    0.011981|
|          60|   -5.303008|   -7.221744|    0.823914|    0.011981|
|          61|   -5.298333|   -7.226942|    0.823921|    0.011980|
|          62|   -5.293794|   -7.233136|    0.823927|    0.011979|
|          63|   -5.289420|   -7.239772|    0.823934|    0.011979|
|          64|   -5.285224|   -7.246336|    0.823941|    0.011978|
|          65|   -5.281206|   -7.252396|    0.823947|    0.011978|
|          66|   -5.277354|   -7.257656|    0.823954|    0.011977|
|          67|   -5.273653|   -7.261968|    0.823960|    0.011977|
|          68|   -5.270089|   -7.265335|    0.823966|    0.011977|
|          69|   -5.266649|   -7.267877|    0.823972|    0.011977|
|          70|   -5.263331|   -7.269782|    0.823978|    0.011977|
|          71|   -5.260140|   -7.271260|    0.823983|    0.011977|
|          72|   -5.257091|   -7.272498|    0.823988|    0.011977|
|          73|   -5.254204|   -7.273633|    0.823992|    0.011977|
|          74|   -5.251503|   -7.274733|    0.823996|    0.011977|
|          75|   -5.249006|   -7.275803|    0.823999|    0.011977|
|          76|   -5.246727|   -7.276794|    0.824002|    0.011977|
|          77|   -5.244670|   -7.277625|    0.824005|    0.011978|
|          78|   -5.242826|   -7.278201|    0.824008|    0.011978|
|          79|   -5.241177|   -7.278441|    0.824010|    0.011979|
|          80|   -5.239697|   -7.278289|    0.824011|    0.011979|
|          81|   -5.238356|   -7.277727|    0.824013|    0.011979|
|          82|   -5.237123|   -7.276780|    0.824014|    0.011980|
|          83|   -5.235974|   -7.275509|    0.824015|    0.011980|
|          84|   -5.234893|   -7.274005|    0.824016|    0.011981|
|          85|   -5.233875|   -7.272376|    0.824017|    0.011981|
|          86|   -5.232929|   -7.270731|    0.824018|    0.011982|
|          87|   -5.232075|   -7.269174|    0.824019|    0.011983|
|          88|   -5.231343|   -7.267795|    0.824019|    0.011983|
|          89|   -5.230773|   -7.266663|    0.824020|    0.011984|
|          90|   -5.230404|   -7.265826|    0.824020|    0.011985|
|          91|   -5.230278|   -7.265313|    0.824021|    0.011986|
|          92|   -5.230435|   -7.265132|    0.824022|    0.011987|
|          93|   -5.230909|   -7.265276|    0.824023|    0.011988|
|          94|   -5.231726|   -7.265728|    0.824024|    0.011989|
|          95|   -5.232906|   -7.266463|    0.824025|    0.011990|
|          96|   -5.234459|   -7.267450|    0.824026|    0.011991|
|          97|   -5.236385|   -7.268658|    0.824027|    0.011992|
|          98|   -5.238678|   -7.270055|    0.824029|    0.011993|
|          99|   -5.241321|   -7.271609|    0.824030|    0.011994|
|         100|   -5.244287|   -7.273289|    0.824032|    0.011996|
|         101|   -5.247538|   -7.275068|    0.824034|    0.011995|
+-----------------------------------------------------------------------+
|Fixed CL Mode                           |Value                         |
+-----------------------------------------------------------------------+
|Current CL                              |0.824034                      |
|Target CL                               |0.824                         |
|Previous AOA                            |2.78004                       |
|Changed AoA by                          |-0.000159533                  |
+-----------------------------------------------------------------------+
+----------------------------------------------------------------+
|  Inner_Iter|    rms[Rho]|     rms[nu]|          CL|          CD|
+----------------------------------------------------------------+
|         102|   -3.989449|   -7.271657|    0.824035|    0.011996|
|         103|   -4.366544|   -7.276120|    0.824037|    0.011998|
|         104|   -4.594232|   -7.278818|    0.824039|    0.011999|
|         105|   -4.667899|   -7.281176|    0.824041|    0.012000|
|         106|   -4.721616|   -7.283381|    0.824043|    0.012002|
|         107|   -4.790444|   -7.285461|    0.824044|    0.012003|
|         108|   -4.873429|   -7.287416|    0.824046|    0.012005|
|         109|   -4.957755|   -7.289236|    0.824047|    0.012006|
|         110|   -5.027707|   -7.290913|    0.824049|    0.012008|
|         111|   -5.075630|   -7.292432|    0.824050|    0.012009|
|         112|   -5.103366|   -7.293777|    0.824051|    0.012011|
|         113|   -5.115437|   -7.294940|    0.824052|    0.012012|
|         114|   -5.116673|   -7.295917|    0.824052|    0.012013|
|         115|   -5.112878|   -7.296706|    0.824053|    0.012015|
|         116|   -5.109486|   -7.297303|    0.824053|    0.012016|
|         117|   -5.109645|   -7.297705|    0.824053|    0.012017|
|         118|   -5.113746|   -7.297913|    0.824052|    0.012018|
|         119|   -5.120227|   -7.297932|    0.824052|    0.012019|
|         120|   -5.126901|   -7.297771|    0.824051|    0.012020|
|         121|   -5.132202|   -7.297445|    0.824050|    0.012020|
|         122|   -5.135761|   -7.296971|    0.824049|    0.012021|
|         123|   -5.138144|   -7.296369|    0.824048|    0.012022|
|         124|   -5.140185|   -7.295667|    0.824047|    0.012022|
|         125|   -5.142484|   -7.294894|    0.824046|    0.012023|
|         126|   -5.145301|   -7.294079|    0.824044|    0.012023|
|         127|   -5.148670|   -7.293257|    0.824043|    0.012024|
|         128|   -5.152534|   -7.292457|    0.824042|    0.012024|
|         129|   -5.156812|   -7.291708|    0.824040|    0.012024|
|         130|   -5.161406|   -7.291032|    0.824039|    0.012025|
|         131|   -5.166209|   -7.290449|    0.824038|    0.012025|
|         132|   -5.171135|   -7.289971|    0.824037|    0.012025|
|         133|   -5.176151|   -7.289607|    0.824036|    0.012025|
|         134|   -5.181288|   -7.289357|    0.824035|    0.012025|
|         135|   -5.186612|   -7.289222|    0.824034|    0.012026|
|         136|   -5.192187|   -7.289197|    0.824033|    0.012026|
|         137|   -5.198034|   -7.289275|    0.824033|    0.012026|
|         138|   -5.204103|   -7.289450|    0.824032|    0.012026|
|         139|   -5.210267|   -7.289717|    0.824032|    0.012026|
|         140|   -5.216338|   -7.290070|    0.824031|    0.012026|
|         141|   -5.222091|   -7.290509|    0.824031|    0.012026|
|         142|   -5.227310|   -7.291038|    0.824030|    0.012027|
|         143|   -5.231838|   -7.291664|    0.824030|    0.012027|
|         144|   -5.235611|   -7.292397|    0.824030|    0.012027|
|         145|   -5.238676|   -7.293255|    0.824029|    0.012027|
|         146|   -5.241170|   -7.294254|    0.824029|    0.012027|
|         147|   -5.243279|   -7.295417|    0.824028|    0.012027|
|         148|   -5.245186|   -7.296766|    0.824028|    0.012027|
|         149|   -5.247033|   -7.298322|    0.824027|    0.012027|
|         150|   -5.248892|   -7.300107|    0.824026|    0.012027|
|         151|   -5.250768|   -7.302140|    0.824025|    0.012027|
|         152|   -5.252609|   -7.304436|    0.824024|    0.012027|
|         153|   -5.254327|   -7.307007|    0.824023|    0.012026|
|         154|   -5.255828|   -7.309860|    0.824021|    0.012026|
|         155|   -5.257032|   -7.312997|    0.824020|    0.012026|
|         156|   -5.257884|   -7.316415|    0.824018|    0.012026|
|         157|   -5.258366|   -7.320105|    0.824017|    0.012025|
|         158|   -5.258486|   -7.324053|    0.824015|    0.012025|
|         159|   -5.258280|   -7.328241|    0.824013|    0.012025|
|         160|   -5.257795|   -7.332644|    0.824011|    0.012024|
|         161|   -5.257082|   -7.337236|    0.824009|    0.012024|
|         162|   -5.256194|   -7.341990|    0.824007|    0.012023|
|         163|   -5.255179|   -7.346874|    0.824005|    0.012023|
|         164|   -5.254082|   -7.351858|    0.824003|    0.012022|
|         165|   -5.252942|   -7.356914|    0.824001|    0.012022|
|         166|   -5.251798|   -7.362013|    0.823999|    0.012021|
|         167|   -5.250685|   -7.367133|    0.823997|    0.012021|
|         168|   -5.249633|   -7.372253|    0.823995|    0.012020|
|         169|   -5.248668|   -7.377357|    0.823994|    0.012019|
|         170|   -5.247811|   -7.382435|    0.823992|    0.012019|
|         171|   -5.247075|   -7.387479|    0.823991|    0.012018|
|         172|   -5.246465|   -7.392489|    0.823989|    0.012018|
|         173|   -5.245978|   -7.397467|    0.823988|    0.012017|
|         174|   -5.245605|   -7.402416|    0.823987|    0.012017|
|         175|   -5.245331|   -7.407345|    0.823986|    0.012016|
|         176|   -5.245138|   -7.412262|    0.823986|    0.012016|
|         177|   -5.245004|   -7.417174|    0.823985|    0.012015|
|         178|   -5.244912|   -7.422091|    0.823985|    0.012015|
|         179|   -5.244843|   -7.427019|    0.823985|    0.012014|
|         180|   -5.244783|   -7.431963|    0.823985|    0.012014|
|         181|   -5.244725|   -7.436926|    0.823985|    0.012013|
|         182|   -5.244665|   -7.441908|    0.823985|    0.012013|
|         183|   -5.244607|   -7.446910|    0.823986|    0.012013|
|         184|   -5.244561|   -7.451925|    0.823986|    0.012012|
|         185|   -5.244540|   -7.456951|    0.823987|    0.012012|
|         186|   -5.244565|   -7.461980|    0.823988|    0.012011|
|         187|   -5.244657|   -7.467003|    0.823989|    0.012011|
|         188|   -5.244841|   -7.472015|    0.823990|    0.012011|
|         189|   -5.245140|   -7.477009|    0.823991|    0.012010|
|         190|   -5.245576|   -7.481979|    0.823993|    0.012010|
|         191|   -5.246168|   -7.486920|    0.823994|    0.012010|
|         192|   -5.246929|   -7.491831|    0.823995|    0.012010|
|         193|   -5.247868|   -7.496711|    0.823997|    0.012009|
|         194|   -5.248985|   -7.501561|    0.823999|    0.012009|
|         195|   -5.250272|   -7.506384|    0.824000|    0.012009|
|         196|   -5.251712|   -7.511185|    0.824002|    0.012009|
|         197|   -5.253280|   -7.515971|    0.824003|    0.012008|
|         198|   -5.254945|   -7.520750|    0.824005|    0.012008|
|         199|   -5.256666|   -7.525531|    0.824007|    0.012008|
|         200|   -5.258397|   -7.530324|    0.824009|    0.012008|
|         201|   -5.260091|   -7.535140|    0.824010|    0.012007|
+-----------------------------------------------------------------------+
|Fixed CL Mode                           |Value                         |
+-----------------------------------------------------------------------+
|Current CL                              |0.82401                       |
|Target CL                               |0.824                         |
|Previous AOA                            |2.77988                       |
|Changed AoA by                          |-4.25928e-05                  |
+-----------------------------------------------------------------------+
+----------------------------------------------------------------+
|  Inner_Iter|    rms[Rho]|     rms[nu]|          CL|          CD|
+----------------------------------------------------------------+
|         202|   -4.556020|   -7.538610|    0.824012|    0.012007|
|         203|   -4.901574|   -7.544057|    0.824014|    0.012007|
|         204|   -5.065394|   -7.549141|    0.824015|    0.012007|
|         205|   -5.103449|   -7.554234|    0.824017|    0.012007|
|         206|   -5.129130|   -7.559397|    0.824019|    0.012007|
|         207|   -5.160266|   -7.564640|    0.824021|    0.012007|
|         208|   -5.192176|   -7.569966|    0.824022|    0.012007|
|         209|   -5.217968|   -7.575375|    0.824024|    0.012007|
|         210|   -5.234851|   -7.580862|    0.824025|    0.012007|
|         211|   -5.244449|   -7.586417|    0.824027|    0.012007|
|         212|   -5.249469|   -7.592031|    0.824029|    0.012007|
|         213|   -5.251728|   -7.597697|    0.824030|    0.012007|
|         214|   -5.252295|   -7.603406|    0.824032|    0.012007|
|         215|   -5.252046|   -7.609149|    0.824033|    0.012007|
|         216|   -5.251767|   -7.614919|    0.824034|    0.012007|
|         217|   -5.251981|   -7.620705|    0.824036|    0.012008|
|         218|   -5.252850|   -7.626494|    0.824037|    0.012008|
|         219|   -5.254265|   -7.632276|    0.824038|    0.012008|
|         220|   -5.256037|   -7.638037|    0.824039|    0.012008|
|         221|   -5.258061|   -7.643763|    0.824040|    0.012009|
|         222|   -5.260363|   -7.649439|    0.824041|    0.012009|
|         223|   -5.263049|   -7.655049|    0.824042|    0.012009|
|         224|   -5.266225|   -7.660576|    0.824043|    0.012010|
|         225|   -5.269949|   -7.666006|    0.824044|    0.012010|
|         226|   -5.274222|   -7.671323|    0.824044|    0.012011|
|         227|   -5.279017|   -7.676515|    0.824045|    0.012011|
|         228|   -5.284299|   -7.681568|    0.824045|    0.012011|
|         229|   -5.290038|   -7.686473|    0.824046|    0.012012|
|         230|   -5.296209|   -7.691217|    0.824046|    0.012012|
|         231|   -5.302787|   -7.695790|    0.824047|    0.012013|
|         232|   -5.309749|   -7.700187|    0.824047|    0.012013|
|         233|   -5.317065|   -7.704400|    0.824047|    0.012014|
|         234|   -5.324698|   -7.708425|    0.824047|    0.012014|
|         235|   -5.332597|   -7.712255|    0.824047|    0.012015|
|         236|   -5.340694|   -7.715886|    0.824047|    0.012015|
|         237|   -5.348894|   -7.719314|    0.824047|    0.012015|
|         238|   -5.357081|   -7.722537|    0.824047|    0.012016|
|         239|   -5.365120|   -7.725551|    0.824047|    0.012016|
|         240|   -5.372866|   -7.728353|    0.824047|    0.012017|
|         241|   -5.380171|   -7.730942|    0.824047|    0.012017|
|         242|   -5.386903|   -7.733318|    0.824047|    0.012018|
|         243|   -5.392950|   -7.735483|    0.824047|    0.012018|
|         244|   -5.398235|   -7.737438|    0.824047|    0.012018|
|         245|   -5.402720|   -7.739189|    0.824046|    0.012019|
|         246|   -5.406404|   -7.740742|    0.824046|    0.012019|
|         247|   -5.409318|   -7.742104|    0.824046|    0.012019|
|         248|   -5.411515|   -7.743285|    0.824046|    0.012020|
|         249|   -5.413064|   -7.744296|    0.824046|    0.012020|
|         250|   -5.414039|   -7.745151|    0.824046|    0.012020|
|         251|   -5.414521|   -7.745866|    0.824045|    0.012021|
|         252|   -5.414591|   -7.746460|    0.824045|    0.012021|
|         253|   -5.414334|   -7.746952|    0.824045|    0.012021|
|         254|   -5.413834|   -7.747366|    0.824045|    0.012021|
|         255|   -5.413182|   -7.747726|    0.824044|    0.012021|
|         256|   -5.412465|   -7.748058|    0.824044|    0.012022|
|         257|   -5.411774|   -7.748389|    0.824044|    0.012022|
|         258|   -5.411191|   -7.748745|    0.824043|    0.012022|
|         259|   -5.410794|   -7.749153|    0.824043|    0.012022|
|         260|   -5.410654|   -7.749638|    0.824042|    0.012022|
|         261|   -5.410831|   -7.750226|    0.824042|    0.012022|
|         262|   -5.411376|   -7.750938|    0.824041|    0.012022|
|         263|   -5.412331|   -7.751794|    0.824041|    0.012022|
|         264|   -5.413727|   -7.752810|    0.824040|    0.012022|
|         265|   -5.415589|   -7.753998|    0.824040|    0.012022|
|         266|   -5.417936|   -7.755369|    0.824039|    0.012022|
|         267|   -5.420777|   -7.756927|    0.824038|    0.012022|
|         268|   -5.424120|   -7.758671|    0.824037|    0.012022|
|         269|   -5.427963|   -7.760595|    0.824037|    0.012022|
|         270|   -5.432302|   -7.762687|    0.824036|    0.012022|
|         271|   -5.437127|   -7.764930|    0.824035|    0.012022|
|         272|   -5.442422|   -7.767302|    0.824034|    0.012021|
|         273|   -5.448167|   -7.769777|    0.824033|    0.012021|
|         274|   -5.454336|   -7.772328|    0.824032|    0.012021|
|         275|   -5.460898|   -7.774923|    0.824031|    0.012021|
|         276|   -5.467815|   -7.777530|    0.824030|    0.012020|
|         277|   -5.475047|   -7.780118|    0.824030|    0.012020|
|         278|   -5.482546|   -7.782659|    0.824029|    0.012020|
|         279|   -5.490261|   -7.785126|    0.824028|    0.012020|
|         280|   -5.498135|   -7.787498|    0.824027|    0.012019|
|         281|   -5.506108|   -7.789762|    0.824026|    0.012019|
|         282|   -5.514113|   -7.791909|    0.824026|    0.012019|
|         283|   -5.522084|   -7.793940|    0.824025|    0.012018|
|         284|   -5.529951|   -7.795864|    0.824024|    0.012018|
|         285|   -5.537641|   -7.797699|    0.824024|    0.012017|
|         286|   -5.545086|   -7.799469|    0.824023|    0.012017|
|         287|   -5.552217|   -7.801207|    0.824023|    0.012017|
|         288|   -5.558969|   -7.802951|    0.824023|    0.012016|
|         289|   -5.565286|   -7.804744|    0.824022|    0.012016|
|         290|   -5.571118|   -7.806631|    0.824022|    0.012016|
|         291|   -5.576425|   -7.808660|    0.824022|    0.012015|
|         292|   -5.581178|   -7.810881|    0.824022|    0.012015|
|         293|   -5.585362|   -7.813339|    0.824022|    0.012014|
|         294|   -5.588971|   -7.816079|    0.824022|    0.012014|
|         295|   -5.592014|   -7.819145|    0.824022|    0.012014|
|         296|   -5.594510|   -7.822572|    0.824022|    0.012013|
|         297|   -5.596488|   -7.826394|    0.824022|    0.012013|
|         298|   -5.597986|   -7.830635|    0.824023|    0.012013|
|         299|   -5.599046|   -7.835316|    0.824023|    0.012012|
|         300|   -5.599716|   -7.840451|    0.824023|    0.012012|
|         301|   -5.600045|   -7.846048|    0.824024|    0.012010|
+-----------------------------------------------------------------------+
|Fixed CL Mode                           |Value                         |
+-----------------------------------------------------------------------+
|Current CL                              |0.824024                      |
|Target CL                               |0.824                         |
|Previous AOA                            |2.77983                       |
|Changed AoA by                          |-0.000117307                  |
+-----------------------------------------------------------------------+
+----------------------------------------------------------------+
|  Inner_Iter|    rms[Rho]|     rms[nu]|          CL|          CD|
+----------------------------------------------------------------+
|         302|   -4.123707|   -7.815083|    0.824024|    0.012009|
|         303|   -4.505564|   -7.838505|    0.824025|    0.012009|
|         304|   -4.742512|   -7.850413|    0.824025|    0.012009|
|         305|   -4.817426|   -7.860447|    0.824026|    0.012009|
|         306|   -4.869055|   -7.870142|    0.824027|    0.012008|
|         307|   -4.935859|   -7.879824|    0.824027|    0.012008|
|         308|   -5.017353|   -7.889562|    0.824028|    0.012008|
|         309|   -5.100929|   -7.899368|    0.824029|    0.012008|
|         310|   -5.171611|   -7.909222|    0.824029|    0.012007|
|         311|   -5.222744|   -7.919065|    0.824030|    0.012007|
|         312|   -5.256389|   -7.928837|    0.824031|    0.012007|
|         313|   -5.276129|   -7.938517|    0.824032|    0.012007|
|         314|   -5.285321|   -7.948113|    0.824032|    0.012007|
|         315|   -5.288854|   -7.957615|    0.824033|    0.012007|
|         316|   -5.292237|   -7.966985|    0.824034|    0.012006|
|         317|   -5.299182|   -7.976161|    0.824035|    0.012006|
|         318|   -5.310548|   -7.985096|    0.824035|    0.012006|
|         319|   -5.324865|   -7.993768|    0.824036|    0.012006|
|         320|   -5.339711|   -8.002186|    0.824037|    0.012006|
|         321|   -5.353200|   -8.010365|    0.824037|    0.012006|
|         322|   -5.364834|   -8.018313|    0.824038|    0.012006|
|         323|   -5.375263|   -8.026023|    0.824039|    0.012006|
|         324|   -5.385405|   -8.033481|    0.824039|    0.012006|
|         325|   -5.395735|   -8.040683|    0.824040|    0.012006|
|         326|   -5.406133|   -8.047637|    0.824041|    0.012006|
|         327|   -5.416121|   -8.054362|    0.824041|    0.012006|
|         328|   -5.425174|   -8.060887|    0.824042|    0.012007|
|         329|   -5.432922|   -8.067246|    0.824043|    0.012007|
|         330|   -5.439204|   -8.073471|    0.824043|    0.012007|
|         331|   -5.444069|   -8.079593|    0.824044|    0.012007|
|         332|   -5.447767|   -8.085632|    0.824044|    0.012007|
|         333|   -5.450715|   -8.091604|    0.824045|    0.012007|
|         334|   -5.453424|   -8.097500|    0.824045|    0.012007|
|         335|   -5.456393|   -8.103309|    0.824046|    0.012008|
|         336|   -5.460003|   -8.109003|    0.824046|    0.012008|
|         337|   -5.464453|   -8.114542|    0.824046|    0.012008|
|         338|   -5.469746|   -8.119887|    0.824047|    0.012008|
|         339|   -5.475704|   -8.124991|    0.824047|    0.012008|
|         340|   -5.482013|   -8.129813|    0.824047|    0.012009|
|         341|   -5.488287|   -8.134314|    0.824047|    0.012009|
|         342|   -5.494159|   -8.138460|    0.824048|    0.012009|
|         343|   -5.499363|   -8.142231|    0.824048|    0.012009|
|         344|   -5.503808|   -8.145613|    0.824048|    0.012010|
|         345|   -5.507592|   -8.148605|    0.824048|    0.012010|
|         346|   -5.510974|   -8.151219|    0.824048|    0.012010|
|         347|   -5.514289|   -8.153471|    0.824048|    0.012010|
|         348|   -5.517863|   -8.155385|    0.824047|    0.012011|
|         349|   -5.521942|   -8.156992|    0.824047|    0.012011|
|         350|   -5.526651|   -8.158331|    0.824047|    0.012011|
|         351|   -5.531991|   -8.159438|    0.824046|    0.012011|
|         352|   -5.537863|   -8.160356|    0.824046|    0.012012|
|         353|   -5.544105|   -8.161137|    0.824045|    0.012012|
|         354|   -5.550536|   -8.161835|    0.824045|    0.012012|
|         355|   -5.556994|   -8.162499|    0.824044|    0.012012|
|         356|   -5.563364|   -8.163184|    0.824043|    0.012012|
|         357|   -5.569592|   -8.163949|    0.824043|    0.012013|
|         358|   -5.575674|   -8.164856|    0.824042|    0.012013|
|         359|   -5.581647|   -8.165968|    0.824041|    0.012013|
|         360|   -5.587563|   -8.167351|    0.824040|    0.012013|
|         361|   -5.593470|   -8.169065|    0.824038|    0.012013|
|         362|   -5.599400|   -8.171166|    0.824037|    0.012013|
|         363|   -5.605363|   -8.173708|    0.824036|    0.012014|
|         364|   -5.611342|   -8.176735|    0.824035|    0.012014|
|         365|   -5.617303|   -8.180283|    0.824033|    0.012014|
|         366|   -5.623200|   -8.184377|    0.824032|    0.012014|
|         367|   -5.628984|   -8.189026|    0.824030|    0.012014|
|         368|   -5.634605|   -8.194221|    0.824029|    0.012014|
|         369|   -5.640019|   -8.199933|    0.824027|    0.012014|
|         370|   -5.645184|   -8.206109|    0.824026|    0.012014|
|         371|   -5.650067|   -8.212665|    0.824024|    0.012014|
|         372|   -5.654635|   -8.219487|    0.824023|    0.012014|
|         373|   -5.658861|   -8.226426|    0.824021|    0.012014|
|         374|   -5.662719|   -8.233292|    0.824020|    0.012014|
|         375|   -5.666188|   -8.239870|    0.824018|    0.012014|
|         376|   -5.669251|   -8.245913|    0.824017|    0.012014|
|         377|   -5.671900|   -8.251162|    0.824015|    0.012014|
|         378|   -5.674132|   -8.255354|    0.824014|    0.012014|
|         379|   -5.675956|   -8.258249|    0.824012|    0.012014|
|         380|   -5.677387|   -8.259647|    0.824011|    0.012014|
|         381|   -5.678452|   -8.259414|    0.824010|    0.012014|
|         382|   -5.679186|   -8.257496|    0.824009|    0.012014|
|         383|   -5.679628|   -8.253927|    0.824008|    0.012014|
|         384|   -5.679827|   -8.248827|    0.824007|    0.012014|
|         385|   -5.679832|   -8.242391|    0.824006|    0.012014|
|         386|   -5.679698|   -8.234866|    0.824005|    0.012014|
|         387|   -5.679477|   -8.226532|    0.824004|    0.012014|
|         388|   -5.679223|   -8.217676|    0.824003|    0.012014|
|         389|   -5.678988|   -8.208584|    0.824003|    0.012014|
|         390|   -5.678820|   -8.199517|    0.824002|    0.012014|
|         391|   -5.678764|   -8.190711|    0.824002|    0.012014|
|         392|   -5.678860|   -8.182367|    0.824001|    0.012014|
|         393|   -5.679142|   -8.174654|    0.824001|    0.012013|
|         394|   -5.679642|   -8.167705|    0.824001|    0.012013|
|         395|   -5.680382|   -8.161617|    0.824001|    0.012013|
|         396|   -5.681383|   -8.156471|    0.824000|    0.012013|
|         397|   -5.682658|   -8.152325|    0.824000|    0.012013|
|         398|   -5.684216|   -8.149213|    0.824000|    0.012013|
|         399|   -5.686060|   -8.147145|    0.824001|    0.012013|
|         400|   -5.688191|   -8.146120|    0.824001|    0.012013|
|         401|   -5.690605|   -8.146121|    0.824001|    0.012012|
+-----------------------------------------------------------------------+
|Fixed CL Mode                           |Value                         |
+-----------------------------------------------------------------------+
|Current CL                              |0.824001                      |
|Target CL                               |0.824                         |
|Previous AOA                            |2.77972                       |
|Changed AoA by                          |-3.52512e-06                  |
+-----------------------------------------------------------------------+
+----------------------------------------------------------------+
|  Inner_Iter|    rms[Rho]|     rms[nu]|          CL|          CD|
+----------------------------------------------------------------+
|         402|   -5.518310|   -8.146832|    0.824001|    0.012012|
|         403|   -5.650846|   -8.148891|    0.824001|    0.012012|
|         404|   -5.677374|   -8.151803|    0.824002|    0.012012|
|         405|   -5.683463|   -8.155531|    0.824002|    0.012012|
|         406|   -5.689562|   -8.159993|    0.824003|    0.012012|
|         407|   -5.696957|   -8.165101|    0.824003|    0.012012|
|         408|   -5.704705|   -8.170753|    0.824003|    0.012011|
|         409|   -5.712060|   -8.176837|    0.824004|    0.012011|
|         410|   -5.718820|   -8.183232|    0.824004|    0.012011|
|         411|   -5.725099|   -8.189804|    0.824005|    0.012011|
|         412|   -5.731044|   -8.196413|    0.824005|    0.012011|
|         413|   -5.736730|   -8.202918|    0.824006|    0.012011|
|         414|   -5.742193|   -8.209177|    0.824006|    0.012011|
|         415|   -5.747474|   -8.215060|    0.824007|    0.012011|
|         416|   -5.752639|   -8.220450|    0.824008|    0.012011|
|         417|   -5.757755|   -8.225249|    0.824008|    0.012010|
|         418|   -5.762883|   -8.229388|    0.824009|    0.012010|
|         419|   -5.768059|   -8.232823|    0.824009|    0.012010|
|         420|   -5.773306|   -8.235545|    0.824010|    0.012010|
|         421|   -5.778631|   -8.237576|    0.824010|    0.012010|
|         422|   -5.784028|   -8.238967|    0.824011|    0.012010|
|         423|   -5.789478|   -8.239795|    0.824011|    0.012010|
|         424|   -5.794941|   -8.240155|    0.824012|    0.012010|
|         425|   -5.800369|   -8.240155|    0.824012|    0.012010|
|         426|   -5.805706|   -8.239910|    0.824012|    0.012010|
|         427|   -5.810901|   -8.239538|    0.824013|    0.012010|
|         428|   -5.815914|   -8.239154|    0.824013|    0.012010|
|         429|   -5.820718|   -8.238863|    0.824014|    0.012010|
|         430|   -5.825300|   -8.238762|    0.824014|    0.012010|
|         431|   -5.829651|   -8.238936|    0.824014|    0.012010|
|         432|   -5.833763|   -8.239453|    0.824014|    0.012010|
|         433|   -5.837627|   -8.240371|    0.824015|    0.012010|
|         434|   -5.841223|   -8.241730|    0.824015|    0.012010|
|         435|   -5.844525|   -8.243556|    0.824015|    0.012010|
|         436|   -5.847500|   -8.245864|    0.824015|    0.012010|
|         437|   -5.850109|   -8.248653|    0.824016|    0.012010|
|         438|   -5.852314|   -8.251910|    0.824016|    0.012010|
|         439|   -5.854084|   -8.255609|    0.824016|    0.012010|
|         440|   -5.855397|   -8.259712|    0.824016|    0.012010|
|         441|   -5.856240|   -8.264170|    0.824016|    0.012010|
|         442|   -5.856619|   -8.268924|    0.824017|    0.012010|
|         443|   -5.856550|   -8.273903|    0.824017|    0.012010|
|         444|   -5.856061|   -8.279030|    0.824017|    0.012010|
|         445|   -5.855192|   -8.284218|    0.824017|    0.012010|
|         446|   -5.853988|   -8.289375|    0.824017|    0.012010|
|         447|   -5.852500|   -8.294407|    0.824017|    0.012010|
|         448|   -5.850783|   -8.299215|    0.824017|    0.012010|
|         449|   -5.848892|   -8.303704|    0.824017|    0.012010|
|         450|   -5.846882|   -8.307783|    0.824017|    0.012010|
|         451|   -5.844809|   -8.311368|    0.824018|    0.012010|
|         452|   -5.842726|   -8.314386|    0.824018|    0.012010|
|         453|   -5.840685|   -8.316777|    0.824018|    0.012011|
|         454|   -5.838736|   -8.318496|    0.824018|    0.012011|
|         455|   -5.836924|   -8.319518|    0.824018|    0.012011|
|         456|   -5.835295|   -8.319834|    0.824018|    0.012011|
|         457|   -5.833889|   -8.319454|    0.824018|    0.012011|
|         458|   -5.832742|   -8.318406|    0.824018|    0.012011|
|         459|   -5.831888|   -8.316733|    0.824018|    0.012011|
|         460|   -5.831355|   -8.314494|    0.824018|    0.012011|
|         461|   -5.831169|   -8.311758|    0.824018|    0.012011|
|         462|   -5.831351|   -8.308596|    0.824018|    0.012011|
|         463|   -5.831919|   -8.305091|    0.824018|    0.012012|
|         464|   -5.832887|   -8.301332|    0.824018|    0.012012|
|         465|   -5.834266|   -8.297411|    0.824018|    0.012012|
|         466|   -5.836064|   -8.293415|    0.824018|    0.012012|
|         467|   -5.838287|   -8.289432|    0.824018|    0.012012|
|         468|   -5.840938|   -8.285542|    0.824018|    0.012012|
|         469|   -5.844017|   -8.281824|    0.824018|    0.012012|
|         470|   -5.847521|   -8.278347|    0.824018|    0.012012|
|         471|   -5.851446|   -8.275176|    0.824018|    0.012012|
|         472|   -5.855784|   -8.272370|    0.824018|    0.012012|
|         473|   -5.860525|   -8.269980|    0.824018|    0.012012|
|         474|   -5.865655|   -8.268048|    0.824017|    0.012012|
|         475|   -5.871159|   -8.266610|    0.824017|    0.012012|
|         476|   -5.877017|   -8.265693|    0.824017|    0.012013|
|         477|   -5.883206|   -8.265317|    0.824016|    0.012013|
|         478|   -5.889701|   -8.265493|    0.824016|    0.012013|
|         479|   -5.896470|   -8.266224|    0.824016|    0.012013|
|         480|   -5.903481|   -8.267503|    0.824015|    0.012013|
|         481|   -5.910693|   -8.269314|    0.824015|    0.012013|
|         482|   -5.918064|   -8.271632|    0.824015|    0.012013|
|         483|   -5.925547|   -8.274423|    0.824014|    0.012013|
|         484|   -5.933089|   -8.277644|    0.824014|    0.012013|
|         485|   -5.940634|   -8.281241|    0.824013|    0.012013|
|         486|   -5.948123|   -8.285154|    0.824013|    0.012013|
|         487|   -5.955491|   -8.289314|    0.824012|    0.012013|
|         488|   -5.962674|   -8.293644|    0.824012|    0.012012|
|         489|   -5.969605|   -8.298065|    0.824011|    0.012012|
|         490|   -5.976218|   -8.302494|    0.824011|    0.012012|
|         491|   -5.982448|   -8.306848|    0.824010|    0.012012|
|         492|   -5.988236|   -8.311046|    0.824010|    0.012012|
|         493|   -5.993525|   -8.315016|    0.824009|    0.012012|
|         494|   -5.998271|   -8.318691|    0.824009|    0.012012|
|         495|   -6.002434|   -8.322020|    0.824008|    0.012012|
|         496|   -6.005990|   -8.324966|    0.824008|    0.012012|
|         497|   -6.008925|   -8.327506|    0.824007|    0.012012|
|         498|   -6.011237|   -8.329636|    0.824007|    0.012012|
|         499|   -6.012939|   -8.331369|    0.824006|    0.012012|
|         500|   -6.014054|   -8.332733|    0.824006|    0.012011|
|         501|   -6.014619|   -8.333770|    0.824005|    0.012011|
+-----------------------------------------------------------------------+
|Fixed CL Mode                           |Value                         |
+-----------------------------------------------------------------------+
|Current CL                              |0.824005                      |
|Target CL                               |0.824                         |
|Previous AOA                            |2.77971                       |
|Changed AoA by                          |-2.83607e-05                  |
+-----------------------------------------------------------------------+
+----------------------------------------------------------------+
|  Inner_Iter|    rms[Rho]|     rms[nu]|          CL|          CD|
+----------------------------------------------------------------+
|         502|   -4.740521|   -8.314845|    0.824005|    0.012011|
|         503|   -5.124730|   -8.325539|    0.824004|    0.012011|
|         504|   -5.365059|   -8.329021|    0.824004|    0.012011|
|         505|   -5.437075|   -8.330993|    0.824003|    0.012011|
|         506|   -5.483165|   -8.332382|    0.824003|    0.012010|
|         507|   -5.543002|   -8.333456|    0.824003|    0.012010|
|         508|   -5.615022|   -8.334362|    0.824002|    0.012010|
|         509|   -5.685938|   -8.335223|    0.824002|    0.012010|
|         510|   -5.742304|   -8.336136|    0.824002|    0.012010|
|         511|   -5.780359|   -8.337166|    0.824001|    0.012010|
|         512|   -5.804004|   -8.338358|    0.824001|    0.012010|
|         513|   -5.817467|   -8.339759|    0.824001|    0.012010|
|         514|   -5.823860|   -8.341412|    0.824001|    0.012010|
|         515|   -5.826716|   -8.343338|    0.824000|    0.012010|
|         516|   -5.829721|   -8.345532|    0.824000|    0.012010|
|         517|   -5.835306|   -8.347977|    0.824000|    0.012010|
|         518|   -5.843952|   -8.350647|    0.824000|    0.012009|
|         519|   -5.854581|   -8.353520|    0.824000|    0.012009|
|         520|   -5.865584|   -8.356572|    0.823999|    0.012009|
|         521|   -5.875839|   -8.359775|    0.823999|    0.012009|
|         522|   -5.885183|   -8.363097|    0.823999|    0.012009|
|         523|   -5.894145|   -8.366500|    0.823999|    0.012009|
|         524|   -5.903341|   -8.369943|    0.823999|    0.012009|
|         525|   -5.913038|   -8.373392|    0.823999|    0.012009|
|         526|   -5.923069|   -8.376814|    0.823999|    0.012009|
|         527|   -5.933014|   -8.380185|    0.823999|    0.012009|
|         528|   -5.942424|   -8.383488|    0.823999|    0.012009|
|         529|   -5.950969|   -8.386718|    0.823999|    0.012009|
|         530|   -5.958495|   -8.389874|    0.823999|    0.012009|
|         531|   -5.965029|   -8.392955|    0.823999|    0.012009|
|         532|   -5.970772|   -8.395969|    0.823998|    0.012009|
|         533|   -5.976067|   -8.398922|    0.823998|    0.012009|
|         534|   -5.981327|   -8.401824|    0.823998|    0.012009|
|         535|   -5.986948|   -8.404681|    0.823998|    0.012009|
|         536|   -5.993227|   -8.407497|    0.823998|    0.012009|
|         537|   -6.000304|   -8.410274|    0.823998|    0.012009|
|         538|   -6.008146|   -8.413010|    0.823998|    0.012009|
|         539|   -6.016556|   -8.415699|    0.823998|    0.012009|
|         540|   -6.025211|   -8.418333|    0.823998|    0.012010|
|         541|   -6.033713|   -8.420901|    0.823998|    0.012010|
|         542|   -6.041664|   -8.423390|    0.823998|    0.012010|
|         543|   -6.048749|   -8.425783|    0.823998|    0.012010|
|         544|   -6.054794|   -8.428064|    0.823998|    0.012010|
|         545|   -6.059797|   -8.430213|    0.823998|    0.012010|
|         546|   -6.063904|   -8.432209|    0.823998|    0.012010|
|         547|   -6.067347|   -8.434028|    0.823998|    0.012010|
|         548|   -6.070364|   -8.435650|    0.823998|    0.012010|
|         549|   -6.073143|   -8.437050|    0.823998|    0.012010|
|         550|   -6.075776|   -8.438208|    0.823998|    0.012010|
|         551|   -6.078264|   -8.439104|    0.823998|    0.012010|
|         552|   -6.080531|   -8.439723|    0.823998|    0.012011|
|         553|   -6.082465|   -8.440055|    0.823998|    0.012011|
|         554|   -6.083954|   -8.440094|    0.823998|    0.012011|
|         555|   -6.084918|   -8.439845|    0.823998|    0.012011|
|         556|   -6.085326|   -8.439318|    0.823997|    0.012011|
|         557|   -6.085206|   -8.438531|    0.823997|    0.012011|
|         558|   -6.084626|   -8.437509|    0.823997|    0.012011|
|         559|   -6.083684|   -8.436284|    0.823997|    0.012011|
|         560|   -6.082486|   -8.434894|    0.823997|    0.012011|
|         561|   -6.081133|   -8.433385|    0.823996|    0.012011|
|         562|   -6.079711|   -8.431803|    0.823996|    0.012012|
|         563|   -6.078290|   -8.430199|    0.823996|    0.012012|
|         564|   -6.076921|   -8.428624|    0.823996|    0.012012|
|         565|   -6.075646|   -8.427127|    0.823995|    0.012012|
|         566|   -6.074496|   -8.425756|    0.823995|    0.012012|
|         567|   -6.073499|   -8.424555|    0.823995|    0.012012|
|         568|   -6.072683|   -8.423561|    0.823994|    0.012012|
|         569|   -6.072070|   -8.422808|    0.823994|    0.012012|
|         570|   -6.071686|   -8.422322|    0.823994|    0.012012|
|         571|   -6.071552|   -8.422121|    0.823993|    0.012012|
|         572|   -6.071686|   -8.422217|    0.823993|    0.012012|
|         573|   -6.072103|   -8.422611|    0.823993|    0.012012|
|         574|   -6.072816|   -8.423301|    0.823992|    0.012012|
|         575|   -6.073831|   -8.424275|    0.823992|    0.012012|
|         576|   -6.075153|   -8.425514|    0.823992|    0.012013|
|         577|   -6.076781|   -8.426995|    0.823991|    0.012013|
|         578|   -6.078715|   -8.428686|    0.823991|    0.012013|
|         579|   -6.080947|   -8.430552|    0.823991|    0.012013|
|         580|   -6.083472|   -8.432555|    0.823990|    0.012013|
|         581|   -6.086278|   -8.434655|    0.823990|    0.012013|
|         582|   -6.089354|   -8.436810|    0.823990|    0.012013|
|         583|   -6.092683|   -8.438981|    0.823990|    0.012013|
|         584|   -6.096250|   -8.441131|    0.823989|    0.012013|
|         585|   -6.100034|   -8.443226|    0.823989|    0.012013|
|         586|   -6.104013|   -8.445238|    0.823989|    0.012013|
|         587|   -6.108163|   -8.447145|    0.823989|    0.012013|
|         588|   -6.112458|   -8.448931|    0.823989|    0.012013|
|         589|   -6.116867|   -8.450590|    0.823988|    0.012013|
|         590|   -6.121361|   -8.452119|    0.823988|    0.012013|
|         591|   -6.125906|   -8.453525|    0.823988|    0.012013|
|         592|   -6.130467|   -8.454820|    0.823988|    0.012013|
|         593|   -6.135008|   -8.456020|    0.823988|    0.012013|
|         594|   -6.139489|   -8.457147|    0.823988|    0.012012|
|         595|   -6.143871|   -8.458225|    0.823988|    0.012012|
|         596|   -6.148114|   -8.459279|    0.823988|    0.012012|
|         597|   -6.152177|   -8.460336|    0.823988|    0.012012|
|         598|   -6.156019|   -8.461421|    0.823988|    0.012012|
|         599|   -6.159601|   -8.462559|    0.823988|    0.012012|
|         600|   -6.162887|   -8.463773|    0.823987|    0.012012|
|         601|   -6.165842|   -8.465080|    0.823987|    0.012013|
+-----------------------------------------------------------------------+
|Fixed CL Mode                           |Value                         |
+-----------------------------------------------------------------------+
|Current CL                              |0.823987                      |
|Target CL                               |0.824                         |
|Previous AOA                            |2.77969                       |
|Changed AoA by                          |6.265e-05                     |
+-----------------------------------------------------------------------+
+----------------------------------------------------------------+
|  Inner_Iter|    rms[Rho]|     rms[nu]|          CL|          CD|
+----------------------------------------------------------------+
|         602|   -4.396299|   -8.329658|    0.823987|    0.012013|
|         603|   -4.779896|   -8.388949|    0.823987|    0.012013|
|         604|   -5.022388|   -8.410172|    0.823987|    0.012013|
|         605|   -5.101254|   -8.422998|    0.823987|    0.012013|
|         606|   -5.155473|   -8.432954|    0.823987|    0.012012|
|         607|   -5.225547|   -8.441431|    0.823987|    0.012012|
|         608|   -5.311870|   -8.448860|    0.823987|    0.012012|
|         609|   -5.401663|   -8.455467|    0.823987|    0.012012|
|         610|   -5.478389|   -8.461352|    0.823987|    0.012012|
|         611|   -5.533719|   -8.466485|    0.823987|    0.012012|
|         612|   -5.569436|   -8.470872|    0.823987|    0.012012|
|         613|   -5.589602|   -8.474668|    0.823987|    0.012012|
|         614|   -5.598246|   -8.478121|    0.823988|    0.012012|
|         615|   -5.601206|   -8.481422|    0.823988|    0.012012|
|         616|   -5.604907|   -8.484630|    0.823988|    0.012011|
|         617|   -5.613577|   -8.487724|    0.823988|    0.012011|
|         618|   -5.628118|   -8.490689|    0.823988|    0.012011|
|         619|   -5.646697|   -8.493573|    0.823988|    0.012011|
|         620|   -5.666225|   -8.496460|    0.823988|    0.012011|
|         621|   -5.684136|   -8.499419|    0.823988|    0.012011|
|         622|   -5.699596|   -8.502480|    0.823988|    0.012011|
|         623|   -5.713387|   -8.505626|    0.823988|    0.012011|
|         624|   -5.726808|   -8.508814|    0.823988|    0.012011|
|         625|   -5.740667|   -8.511972|    0.823988|    0.012011|
|         626|   -5.754976|   -8.515060|    0.823988|    0.012011|
|         627|   -5.769189|   -8.518053|    0.823988|    0.012011|
|         628|   -5.782591|   -8.520931|    0.823988|    0.012010|
|         629|   -5.794565|   -8.523687|    0.823988|    0.012010|
|         630|   -5.804715|   -8.526317|    0.823988|    0.012010|
|         631|   -5.812923|   -8.528820|    0.823988|    0.012010|
|         632|   -5.819397|   -8.531199|    0.823988|    0.012010|
|         633|   -5.824670|   -8.533456|    0.823988|    0.012010|
|         634|   -5.829499|   -8.535584|    0.823988|    0.012010|
|         635|   -5.834692|   -8.537583|    0.823988|    0.012010|
|         636|   -5.840921|   -8.539447|    0.823988|    0.012010|
|         637|   -5.848610|   -8.541168|    0.823988|    0.012010|
|         638|   -5.857874|   -8.542744|    0.823988|    0.012010|
|         639|   -5.868527|   -8.544168|    0.823988|    0.012010|
|         640|   -5.880113|   -8.545441|    0.823988|    0.012010|
|         641|   -5.891987|   -8.546570|    0.823988|    0.012010|
|         642|   -5.903440|   -8.547569|    0.823988|    0.012010|
|         643|   -5.913873|   -8.548459|    0.823988|    0.012010|
|         644|   -5.922960|   -8.549267|    0.823988|    0.012010|
|         645|   -5.930745|   -8.550026|    0.823988|    0.012010|
|         646|   -5.937614|   -8.550770|    0.823988|    0.012010|
|         647|   -5.944164|   -8.551529|    0.823989|    0.012010|
|         648|   -5.951024|   -8.552335|    0.823989|    0.012010|
|         649|   -5.958701|   -8.553216|    0.823989|    0.012010|
|         650|   -5.967484|   -8.554196|    0.823989|    0.012010|
|         651|   -5.977424|   -8.555308|    0.823989|    0.012010|
|         652|   -5.988352|   -8.556583|    0.823989|    0.012011|
|         653|   -5.999947|   -8.558036|    0.823990|    0.012011|
|         654|   -6.011812|   -8.559714|    0.823990|    0.012011|
|         655|   -6.023561|   -8.561667|    0.823990|    0.012011|
|         656|   -6.034895|   -8.563940|    0.823991|    0.012011|
|         657|   -6.045640|   -8.566583|    0.823991|    0.012011|
|         658|   -6.055764|   -8.569644|    0.823991|    0.012011|
|         659|   -6.065343|   -8.573176|    0.823992|    0.012011|
|         660|   -6.074517|   -8.577231|    0.823992|    0.012011|
|         661|   -6.083441|   -8.581854|    0.823993|    0.012011|
|         662|   -6.092239|   -8.587089|    0.823993|    0.012012|
|         663|   -6.100988|   -8.592972|    0.823993|    0.012012|
|         664|   -6.109709|   -8.599526|    0.823994|    0.012012|
|         665|   -6.118379|   -8.606755|    0.823994|    0.012012|
|         666|   -6.126949|   -8.614641|    0.823995|    0.012012|
|         667|   -6.135358|   -8.623143|    0.823995|    0.012012|
|         668|   -6.143552|   -8.632184|    0.823996|    0.012012|
|         669|   -6.151489|   -8.641653|    0.823996|    0.012012|
|         670|   -6.159142|   -8.651391|    0.823997|    0.012013|
|         671|   -6.166496|   -8.661189|    0.823997|    0.012013|
|         672|   -6.173543|   -8.670785|    0.823998|    0.012013|
|         673|   -6.180278|   -8.679867|    0.823998|    0.012013|
|         674|   -6.186695|   -8.688083|    0.823998|    0.012013|
|         675|   -6.192785|   -8.695055|    0.823999|    0.012013|
|         676|   -6.198542|   -8.700419|    0.823999|    0.012013|
|         677|   -6.203961|   -8.703852|    0.823999|    0.012013|
|         678|   -6.209042|   -8.705120|    0.824000|    0.012013|
|         679|   -6.213795|   -8.704106|    0.824000|    0.012014|
|         680|   -6.218237|   -8.700837|    0.824000|    0.012014|
|         681|   -6.222394|   -8.695480|    0.824000|    0.012014|
|         682|   -6.226302|   -8.688319|    0.824000|    0.012014|
|         683|   -6.230002|   -8.679726|    0.824000|    0.012014|
|         684|   -6.233543|   -8.670120|    0.824000|    0.012014|
|         685|   -6.236976|   -8.659925|    0.824000|    0.012014|
|         686|   -6.240354|   -8.649545|    0.824000|    0.012014|
|         687|   -6.243730|   -8.639343|    0.824000|    0.012014|
|         688|   -6.247159|   -8.629630|    0.824000|    0.012014|
|         689|   -6.250690|   -8.620666|    0.823999|    0.012014|
|         690|   -6.254372|   -8.612658|    0.823999|    0.012014|
|         691|   -6.258250|   -8.605768|    0.823999|    0.012014|
|         692|   -6.262363|   -8.600117|    0.823999|    0.012014|
|         693|   -6.266745|   -8.595789|    0.823998|    0.012014|
|         694|   -6.271425|   -8.592841|    0.823998|    0.012014|
|         695|   -6.276424|   -8.591302|    0.823997|    0.012014|
|         696|   -6.281759|   -8.591182|    0.823997|    0.012014|
|         697|   -6.287438|   -8.592466|    0.823997|    0.012014|
|         698|   -6.293462|   -8.595124|    0.823996|    0.012014|
|         699|   -6.299827|   -8.599103|    0.823996|    0.012014|
|         700|   -6.306523|   -8.604333|    0.823995|    0.012014|
|         701|   -6.313530|   -8.610721|    0.823995|    0.012015|
+-----------------------------------------------------------------------+
|Fixed CL Mode                           |Value                         |
+-----------------------------------------------------------------------+
|Current CL                              |0.823995                      |
|Target CL                               |0.824                         |
|Previous AOA                            |2.77975                       |
|Changed AoA by                          |2.39641e-05                   |
+-----------------------------------------------------------------------+
+----------------------------------------------------------------+
|  Inner_Iter|    rms[Rho]|     rms[nu]|          CL|          CD|
+----------------------------------------------------------------+
|         702|   -4.813394|   -8.566230|    0.823994|    0.012015|
|         703|   -5.194534|   -8.597465|    0.823994|    0.012015|
|         704|   -5.430050|   -8.613639|    0.823993|    0.012014|
|         705|   -5.505065|   -8.627162|    0.823993|    0.012014|
|         706|   -5.557620|   -8.639876|    0.823992|    0.012014|
|         707|   -5.625745|   -8.652054|    0.823992|    0.012014|
|         708|   -5.709275|   -8.663634|    0.823991|    0.012014|
|         709|   -5.796163|   -8.674477|    0.823991|    0.012014|
|         710|   -5.871719|   -8.684380|    0.823990|    0.012014|
|         711|   -5.928896|   -8.693083|    0.823990|    0.012014|
|         712|   -5.968944|   -8.700338|    0.823990|    0.012014|
|         713|   -5.994475|   -8.706009|    0.823989|    0.012014|
|         714|   -6.008051|   -8.710057|    0.823989|    0.012014|
|         715|   -6.014592|   -8.712501|    0.823988|    0.012014|
|         716|   -6.020406|   -8.713388|    0.823988|    0.012014|
|         717|   -6.030110|   -8.712807|    0.823988|    0.012014|
|         718|   -6.045115|   -8.710912|    0.823987|    0.012014|
|         719|   -6.064075|   -8.707931|    0.823987|    0.012013|
|         720|   -6.084338|   -8.704126|    0.823987|    0.012013|
|         721|   -6.103658|   -8.699754|    0.823987|    0.012013|
|         722|   -6.121313|   -8.695043|    0.823986|    0.012013|
|         723|   -6.137977|   -8.690187|    0.823986|    0.012013|
|         724|   -6.154686|   -8.685338|    0.823986|    0.012013|
|         725|   -6.171893|   -8.680627|    0.823986|    0.012013|
|         726|   -6.189191|   -8.676171|    0.823986|    0.012013|
|         727|   -6.205594|   -8.672071|    0.823986|    0.012013|
|         728|   -6.220025|   -8.668414|    0.823986|    0.012013|
|         729|   -6.231692|   -8.665264|    0.823986|    0.012013|
|         730|   -6.240274|   -8.662669|    0.823986|    0.012013|
|         731|   -6.245941|   -8.660664|    0.823986|    0.012012|
|         732|   -6.249300|   -8.659264|    0.823986|    0.012012|
|         733|   -6.251260|   -8.658468|    0.823986|    0.012012|
|         734|   -6.252832|   -8.658266|    0.823986|    0.012012|
|         735|   -6.254910|   -8.658629|    0.823986|    0.012012|
|         736|   -6.258115|   -8.659526|    0.823986|    0.012012|
|         737|   -6.262720|   -8.660913|    0.823986|    0.012012|
|         738|   -6.268656|   -8.662744|    0.823986|    0.012012|
|         739|   -6.275559|   -8.664972|    0.823986|    0.012012|
|         740|   -6.282855|   -8.667551|    0.823986|    0.012012|
|         741|   -6.289874|   -8.670437|    0.823987|    0.012012|
|         742|   -6.295995|   -8.673589|    0.823987|    0.012012|
|         743|   -6.300806|   -8.676970|    0.823987|    0.012012|
|         744|   -6.304216|   -8.680552|    0.823987|    0.012012|
|         745|   -6.306473|   -8.684306|    0.823987|    0.012012|
|         746|   -6.308083|   -8.688212|    0.823988|    0.012012|
|         747|   -6.309654|   -8.692248|    0.823988|    0.012012|
|         748|   -6.311748|   -8.696401|    0.823988|    0.012012|
|         749|   -6.314770|   -8.700657|    0.823988|    0.012012|
|         750|   -6.318918|   -8.705002|    0.823989|    0.012012|
|         751|   -6.324196|   -8.709425|    0.823989|    0.012012|
|         752|   -6.330450|   -8.713914|    0.823989|    0.012012|
|         753|   -6.337435|   -8.718456|    0.823989|    0.012012|
|         754|   -6.344879|   -8.723035|    0.823990|    0.012012|
|         755|   -6.352546|   -8.727635|    0.823990|    0.012012|
|         756|   -6.360276|   -8.732242|    0.823990|    0.012012|
|         757|   -6.368002|   -8.736835|    0.823991|    0.012012|
|         758|   -6.375747|   -8.741389|    0.823991|    0.012012|
|         759|   -6.383592|   -8.745877|    0.823991|    0.012012|
|         760|   -6.391650|   -8.750268|    0.823991|    0.012012|
|         761|   -6.400028|   -8.754532|    0.823992|    0.012012|
|         762|   -6.408806|   -8.758638|    0.823992|    0.012012|
|         763|   -6.418028|   -8.762558|    0.823992|    0.012012|
|         764|   -6.427695|   -8.766269|    0.823992|    0.012012|
|         765|   -6.437776|   -8.769754|    0.823993|    0.012012|
|         766|   -6.448218|   -8.773005|    0.823993|    0.012012|
|         767|   -6.458954|   -8.776026|    0.823993|    0.012012|
|         768|   -6.469914|   -8.778830|    0.823994|    0.012012|
|         769|   -6.481026|   -8.781442|    0.823994|    0.012012|
|         770|   -6.492220|   -8.783897|    0.823994|    0.012012|
|         771|   -6.503422|   -8.786240|    0.823994|    0.012012|
|         772|   -6.514555|   -8.788522|    0.823995|    0.012012|
|         773|   -6.525531|   -8.790797|    0.823995|    0.012012|
|         774|   -6.536252|   -8.793120|    0.823995|    0.012012|
|         775|   -6.546608|   -8.795540|    0.823995|    0.012012|
|         776|   -6.556484|   -8.798101|    0.823995|    0.012012|
|         777|   -6.565760|   -8.800835|    0.823996|    0.012012|
|         778|   -6.574320|   -8.803760|    0.823996|    0.012012|
|         779|   -6.582059|   -8.806878|    0.823996|    0.012012|
|         780|   -6.588891|   -8.810174|    0.823996|    0.012012|
|         781|   -6.594750|   -8.813616|    0.823996|    0.012012|
|         782|   -6.599602|   -8.817151|    0.823997|    0.012013|
|         783|   -6.603440|   -8.820712|    0.823997|    0.012013|
|         784|   -6.606287|   -8.824218|    0.823997|    0.012013|
|         785|   -6.608196|   -8.827580|    0.823997|    0.012013|
|         786|   -6.609242|   -8.830703|    0.823997|    0.012013|
|         787|   -6.609519|   -8.833498|    0.823997|    0.012013|
|         788|   -6.609135|   -8.835886|    0.823997|    0.012013|
|         789|   -6.608203|   -8.837807|    0.823997|    0.012013|
|         790|   -6.606842|   -8.839224|    0.823997|    0.012013|
|         791|   -6.605162|   -8.840132|    0.823997|    0.012013|
|         792|   -6.603271|   -8.840557|    0.823997|    0.012013|
|         793|   -6.601267|   -8.840557|    0.823997|    0.012013|
|         794|   -6.599234|   -8.840219|    0.823997|    0.012013|
|         795|   -6.597249|   -8.839656|    0.823997|    0.012013|
|         796|   -6.595372|   -8.838995|    0.823997|    0.012013|
|         797|   -6.593654|   -8.838376|    0.823997|    0.012013|
|         798|   -6.592136|   -8.837942|    0.823997|    0.012013|
|         799|   -6.590847|   -8.837829|    0.823997|    0.012013|
|         800|   -6.589808|   -8.838166|    0.823997|    0.012013|
|         801|   -6.589030|   -8.839066|    0.823997|    0.012014|
+-----------------------------------------------------------------------+
|Fixed CL Mode                           |Value                         |
+-----------------------------------------------------------------------+
|Current CL                              |0.823997                      |
|Target CL                               |0.824                         |
|Previous AOA                            |2.77977                       |
|Changed AoA by                          |1.67726e-05                   |
+-----------------------------------------------------------------------+
+----------------------------------------------------------------+
|  Inner_Iter|    rms[Rho]|     rms[nu]|          CL|          CD|
+----------------------------------------------------------------+
|         802|   -4.968525|   -8.772827|    0.823996|    0.012014|
|         803|   -5.350021|   -8.805421|    0.823996|    0.012014|
|         804|   -5.585392|   -8.818194|    0.823996|    0.012014|
|         805|   -5.659594|   -8.827503|    0.823996|    0.012014|
|         806|   -5.711653|   -8.836068|    0.823996|    0.012014|
|         807|   -5.779685|   -8.844544|    0.823996|    0.012014|
|         808|   -5.863598|   -8.853141|    0.823995|    0.012014|
|         809|   -5.951542|   -8.861941|    0.823995|    0.012014|
|         810|   -6.028862|   -8.870918|    0.823995|    0.012014|
|         811|   -6.088120|   -8.879917|    0.823995|    0.012014|
|         812|   -6.130001|   -8.888729|    0.823995|    0.012014|
|         813|   -6.156690|   -8.897171|    0.823995|    0.012014|
|         814|   -6.170600|   -8.905077|    0.823994|    0.012014|
|         815|   -6.176825|   -8.912248|    0.823994|    0.012014|
|         816|   -6.182003|   -8.918435|    0.823994|    0.012014|
|         817|   -6.190975|   -8.923383|    0.823994|    0.012014|
|         818|   -6.205219|   -8.926899|    0.823994|    0.012014|
|         819|   -6.223352|   -8.928897|    0.823994|    0.012014|
|         820|   -6.242660|   -8.929387|    0.823993|    0.012014|
|         821|   -6.260870|   -8.928452|    0.823993|    0.012014|
|         822|   -6.277279|   -8.926212|    0.823993|    0.012014|
|         823|   -6.292593|   -8.922818|    0.823993|    0.012014|
|         824|   -6.307870|   -8.918439|    0.823993|    0.012014|
|         825|   -6.323578|   -8.913262|    0.823993|    0.012014|
|         826|   -6.339341|   -8.907497|    0.823993|    0.012013|
|         827|   -6.354248|   -8.901363|    0.823993|    0.012013|
|         828|   -6.367328|   -8.895065|    0.823993|    0.012013|
|         829|   -6.377902|   -8.888789|    0.823993|    0.012013|
|         830|   -6.385722|   -8.882691|    0.823993|    0.012013|
|         831|   -6.390978|   -8.876899|    0.823992|    0.012013|
|         832|   -6.394234|   -8.871507|    0.823992|    0.012013|
|         833|   -6.396313|   -8.866584|    0.823992|    0.012013|
|         834|   -6.398129|   -8.862164|    0.823992|    0.012013|
|         835|   -6.400494|   -8.858256|    0.823992|    0.012013|
|         836|   -6.403971|   -8.854851|    0.823992|    0.012013|
|         837|   -6.408801|   -8.851921|    0.823992|    0.012013|
|         838|   -6.414904|   -8.849427|    0.823992|    0.012013|
|         839|   -6.421919|   -8.847322|    0.823992|    0.012013|
|         840|   -6.429278|   -8.845554|    0.823992|    0.012013|
|         841|   -6.436314|   -8.844072|    0.823993|    0.012013|
|         842|   -6.442401|   -8.842824|    0.823993|    0.012013|
|         843|   -6.447109|   -8.841763|    0.823993|    0.012013|
|         844|   -6.450319|   -8.840846|    0.823993|    0.012013|
|         845|   -6.452243|   -8.840036|    0.823993|    0.012013|
|         846|   -6.453347|   -8.839302|    0.823993|    0.012013|
|         847|   -6.454204|   -8.838619|    0.823993|    0.012012|
|         848|   -6.455338|   -8.837968|    0.823993|    0.012012|
|         849|   -6.457124|   -8.837334|    0.823993|    0.012012|
|         850|   -6.459733|   -8.836709|    0.823993|    0.012012|
|         851|   -6.463147|   -8.836089|    0.823993|    0.012012|
|         852|   -6.467197|   -8.835474|    0.823993|    0.012012|
|         853|   -6.471630|   -8.834871|    0.823993|    0.012012|
|         854|   -6.476176|   -8.834273|    0.823993|    0.012012|
|         855|   -6.480606|   -8.833698|    0.823994|    0.012012|
|         856|   -6.484772|   -8.833163|    0.823994|    0.012012|
|         857|   -6.488615|   -8.832685|    0.823994|    0.012012|
|         858|   -6.492160|   -8.832281|    0.823994|    0.012012|
|         859|   -6.495482|   -8.831970|    0.823994|    0.012012|
|         860|   -6.498680|   -8.831771|    0.823994|    0.012012|
|         861|   -6.501848|   -8.831709|    0.823994|    0.012012|
|         862|   -6.505051|   -8.831805|    0.823995|    0.012012|
|         863|   -6.508324|   -8.832085|    0.823995|    0.012012|
|         864|   -6.511674|   -8.832574|    0.823995|    0.012012|
|         865|   -6.515085|   -8.833297|    0.823995|    0.012012|
|         866|   -6.518531|   -8.834278|    0.823995|    0.012012|
|         867|   -6.521986|   -8.835540|    0.823995|    0.012012|
|         868|   -6.525427|   -8.837102|    0.823995|    0.012012|
|         869|   -6.528840|   -8.838978|    0.823996|    0.012012|
|         870|   -6.532220|   -8.841175|    0.823996|    0.012012|
|         871|   -6.535563|   -8.843693|    0.823996|    0.012012|
|         872|   -6.538871|   -8.846524|    0.823996|    0.012012|
|         873|   -6.542144|   -8.849648|    0.823996|    0.012012|
|         874|   -6.545383|   -8.853034|    0.823997|    0.012012|
|         875|   -6.548584|   -8.856638|    0.823997|    0.012012|
|         876|   -6.551746|   -8.860403|    0.823997|    0.012012|
|         877|   -6.554863|   -8.864259|    0.823997|    0.012012|
|         878|   -6.557932|   -8.868126|    0.823997|    0.012012|
|         879|   -6.560953|   -8.871913|    0.823997|    0.012012|
|         880|   -6.563926|   -8.875520|    0.823997|    0.012012|
|         881|   -6.566855|   -8.878852|    0.823997|    0.012012|
|         882|   -6.569746|   -8.881805|    0.823998|    0.012012|
|         883|   -6.572608|   -8.884291|    0.823998|    0.012012|
|         884|   -6.575452|   -8.886234|    0.823998|    0.012012|
|         885|   -6.578289|   -8.887576|    0.823998|    0.012012|
|         886|   -6.581134|   -8.888285|    0.823998|    0.012012|
|         887|   -6.584000|   -8.888355|    0.823998|    0.012012|
|         888|   -6.586900|   -8.887809|    0.823998|    0.012012|
|         889|   -6.589849|   -8.886695|    0.823998|    0.012012|
|         890|   -6.592857|   -8.885088|    0.823998|    0.012012|
|         891|   -6.595936|   -8.883082|    0.823998|    0.012012|
|         892|   -6.599093|   -8.880785|    0.823998|    0.012012|
|         893|   -6.602335|   -8.878316|    0.823998|    0.012012|
|         894|   -6.605666|   -8.875794|    0.823998|    0.012012|
|         895|   -6.609084|   -8.873337|    0.823998|    0.012013|
|         896|   -6.612588|   -8.871059|    0.823998|    0.012013|
|         897|   -6.616170|   -8.869062|    0.823998|    0.012013|
|         898|   -6.619823|   -8.867434|    0.823998|    0.012013|
|         899|   -6.623535|   -8.866253|    0.823998|    0.012013|
|         900|   -6.627290|   -8.865579|    0.823998|    0.012013|
|         901|   -6.631074|   -8.865457|    0.823998|    0.012013|
+-----------------------------------------------------------------------+
|Fixed CL Mode                           |Value                         |
+-----------------------------------------------------------------------+
|Current CL                              |0.823998                      |
|Target CL                               |0.824                         |
|Previous AOA                            |2.77979                       |
[...]
|        5298|   -6.045278|   -7.937590|    0.824237|    0.012016|
|        5299|   -6.052162|   -7.941153|    0.824238|    0.012016|
|        5300|   -6.058620|   -7.944718|    0.824238|    0.012016|
|        5301|   -6.064614|   -7.948298|    0.824238|    0.012016|
|        5302|   -6.070117|   -7.951904|    0.824238|    0.012016|
|        5303|   -6.075116|   -7.955549|    0.824238|    0.012016|
|        5304|   -6.079609|   -7.959237|    0.824238|    0.012016|
|        5305|   -6.083607|   -7.962972|    0.824238|    0.012016|
|        5306|   -6.087137|   -7.966757|    0.824238|    0.012016|
|        5307|   -6.090236|   -7.970594|    0.824238|    0.012016|
|        5308|   -6.092947|   -7.974485|    0.824238|    0.012016|
|        5309|   -6.095320|   -7.978433|    0.824239|    0.012016|
|        5310|   -6.097413|   -7.982440|    0.824239|    0.012016|
|        5311|   -6.099284|   -7.986510|    0.824239|    0.012016|
|        5312|   -6.100995|   -7.990645|    0.824239|    0.012016|
|        5313|   -6.102607|   -7.994851|    0.824239|    0.012016|
|        5314|   -6.104178|   -7.999133|    0.824239|    0.012016|
|        5315|   -6.105762|   -8.003495|    0.824239|    0.012016|
|        5316|   -6.107411|   -8.007946|    0.824239|    0.012016|
|        5317|   -6.109168|   -8.012490|    0.824240|    0.012016|
|        5318|   -6.111074|   -8.017135|    0.824240|    0.012016|
|        5319|   -6.113160|   -8.021887|    0.824240|    0.012016|
|        5320|   -6.115451|   -8.026749|    0.824240|    0.012016|
|        5321|   -6.117967|   -8.031727|    0.824240|    0.012016|
|        5322|   -6.120719|   -8.036822|    0.824240|    0.012016|
|        5323|   -6.123711|   -8.042036|    0.824240|    0.012016|
|        5324|   -6.126942|   -8.047372|    0.824241|    0.012017|
|        5325|   -6.130401|   -8.052827|    0.824241|    0.012017|
|        5326|   -6.134072|   -8.058396|    0.824241|    0.012017|
|        5327|   -6.137935|   -8.064072|    0.824241|    0.012017|
|        5328|   -6.141962|   -8.069848|    0.824241|    0.012017|
|        5329|   -6.146121|   -8.075714|    0.824241|    0.012017|
|        5330|   -6.150376|   -8.081660|    0.824241|    0.012017|
|        5331|   -6.154686|   -8.087674|    0.824242|    0.012017|
|        5332|   -6.159010|   -8.093744|    0.824242|    0.012017|
|        5333|   -6.163303|   -8.099856|    0.824242|    0.012017|
|        5334|   -6.167520|   -8.105998|    0.824242|    0.012017|
|        5335|   -6.171620|   -8.112157|    0.824242|    0.012018|
|        5336|   -6.175562|   -8.118322|    0.824242|    0.012018|
|        5337|   -6.179311|   -8.124480|    0.824242|    0.012018|
|        5338|   -6.182836|   -8.130623|    0.824243|    0.012018|
|        5339|   -6.186113|   -8.136740|    0.824243|    0.012018|
|        5340|   -6.189127|   -8.142823|    0.824243|    0.012018|
|        5341|   -6.191869|   -8.148866|    0.824243|    0.012018|
|        5342|   -6.194342|   -8.154863|    0.824243|    0.012018|
|        5343|   -6.196555|   -8.160809|    0.824243|    0.012018|
|        5344|   -6.198525|   -8.166700|    0.824243|    0.012018|
|        5345|   -6.200278|   -8.172536|    0.824243|    0.012018|
|        5346|   -6.201846|   -8.178313|    0.824243|    0.012018|
|        5347|   -6.203265|   -8.184032|    0.824243|    0.012018|
|        5348|   -6.204577|   -8.189692|    0.824244|    0.012018|
|        5349|   -6.205826|   -8.195295|    0.824244|    0.012019|
|        5350|   -6.207056|   -8.200842|    0.824244|    0.012019|
|        5351|   -6.208312|   -8.206333|    0.824244|    0.012019|
|        5352|   -6.209639|   -8.211771|    0.824244|    0.012019|
|        5353|   -6.211078|   -8.217158|    0.824244|    0.012019|
|        5354|   -6.212670|   -8.222495|    0.824244|    0.012019|
|        5355|   -6.214449|   -8.227782|    0.824244|    0.012019|
|        5356|   -6.216448|   -8.233022|    0.824244|    0.012019|
|        5357|   -6.218694|   -8.238214|    0.824244|    0.012019|
|        5358|   -6.221207|   -8.243360|    0.824244|    0.012019|
|        5359|   -6.224011|   -8.248460|    0.824244|    0.012019|
|        5360|   -6.227118|   -8.253511|    0.824244|    0.012019|
|        5361|   -6.230536|   -8.258513|    0.824244|    0.012019|
|        5362|   -6.234270|   -8.263465|    0.824244|    0.012019|
|        5363|   -6.238318|   -8.268363|    0.824244|    0.012019|
|        5364|   -6.242671|   -8.273207|    0.824244|    0.012019|
|        5365|   -6.247320|   -8.277995|    0.824244|    0.012019|
|        5366|   -6.252248|   -8.282726|    0.824244|    0.012019|
|        5367|   -6.257432|   -8.287401|    0.824244|    0.012019|
|        5368|   -6.262847|   -8.292017|    0.824244|    0.012019|
|        5369|   -6.268460|   -8.296577|    0.824244|    0.012019|
|        5370|   -6.274236|   -8.301079|    0.824244|    0.012019|
|        5371|   -6.280135|   -8.305526|    0.824244|    0.012019|
|        5372|   -6.286114|   -8.309919|    0.824244|    0.012019|
|        5373|   -6.292126|   -8.314259|    0.824244|    0.012019|
|        5374|   -6.298121|   -8.318551|    0.824244|    0.012018|
|        5375|   -6.304051|   -8.322796|    0.824244|    0.012018|
|        5376|   -6.309863|   -8.327001|    0.824244|    0.012018|
|        5377|   -6.315510|   -8.331170|    0.824244|    0.012018|
|        5378|   -6.320943|   -8.335311|    0.824244|    0.012018|
|        5379|   -6.326118|   -8.339429|    0.824244|    0.012018|
|        5380|   -6.330994|   -8.343534|    0.824244|    0.012018|
|        5381|   -6.335538|   -8.347634|    0.824244|    0.012018|
|        5382|   -6.339721|   -8.351738|    0.824244|    0.012018|
|        5383|   -6.343524|   -8.355854|    0.824244|    0.012018|
|        5384|   -6.346932|   -8.359992|    0.824244|    0.012018|
|        5385|   -6.349940|   -8.364159|    0.824244|    0.012018|
|        5386|   -6.352552|   -8.368362|    0.824244|    0.012018|
|        5387|   -6.354775|   -8.372608|    0.824244|    0.012017|
|        5388|   -6.356625|   -8.376903|    0.824244|    0.012017|
|        5389|   -6.358122|   -8.381250|    0.824244|    0.012017|
|        5390|   -6.359291|   -8.385648|    0.824244|    0.012017|
|        5391|   -6.360158|   -8.390097|    0.824244|    0.012017|
|        5392|   -6.360754|   -8.394594|    0.824244|    0.012017|
|        5393|   -6.361108|   -8.399139|    0.824244|    0.012017|
|        5394|   -6.361249|   -8.403729|    0.824244|    0.012017|
|        5395|   -6.361206|   -8.408358|    0.824244|    0.012017|
|        5396|   -6.361004|   -8.413020|    0.824244|    0.012017|
|        5397|   -6.360667|   -8.417706|    0.824244|    0.012016|
|        5398|   -6.360216|   -8.422405|    0.824244|    0.012016|
|        5399|   -6.359671|   -8.427105|    0.824245|    0.012016|
|        5400|   -6.359046|   -8.431791|    0.824245|    0.012016|
|        5401|   -6.358354|   -8.436448|    0.824245|    0.012016|
|        5402|   -6.357606|   -8.441060|    0.824245|    0.012016|
|        5403|   -6.356810|   -8.445610|    0.824245|    0.012016|
|        5404|   -6.355973|   -8.450083|    0.824245|    0.012016|
|        5405|   -6.355099|   -8.454463|    0.824245|    0.012016|
|        5406|   -6.354192|   -8.458734|    0.824245|    0.012016|
|        5407|   -6.353254|   -8.462885|    0.824246|    0.012015|
|        5408|   -6.352289|   -8.466902|    0.824246|    0.012015|
|        5409|   -6.351298|   -8.470776|    0.824246|    0.012015|
|        5410|   -6.350282|   -8.474499|    0.824246|    0.012015|
|        5411|   -6.349244|   -8.478062|    0.824246|    0.012015|
|        5412|   -6.348186|   -8.481461|    0.824246|    0.012015|
|        5413|   -6.347111|   -8.484693|    0.824246|    0.012015|
|        5414|   -6.346021|   -8.487754|    0.824247|    0.012015|
|        5415|   -6.344921|   -8.490646|    0.824247|    0.012015|
|        5416|   -6.343815|   -8.493367|    0.824247|    0.012015|
|        5417|   -6.342709|   -8.495919|    0.824247|    0.012015|
|        5418|   -6.341607|   -8.498303|    0.824247|    0.012015|
|        5419|   -6.340518|   -8.500522|    0.824247|    0.012015|
|        5420|   -6.339447|   -8.502579|    0.824247|    0.012015|
|        5421|   -6.338405|   -8.504474|    0.824247|    0.012015|
|        5422|   -6.337399|   -8.506212|    0.824247|    0.012014|
|        5423|   -6.336439|   -8.507793|    0.824248|    0.012014|
|        5424|   -6.335536|   -8.509222|    0.824248|    0.012014|
|        5425|   -6.334702|   -8.510502|    0.824248|    0.012014|
|        5426|   -6.333948|   -8.511635|    0.824248|    0.012014|
|        5427|   -6.333288|   -8.512627|    0.824248|    0.012014|
|        5428|   -6.332733|   -8.513481|    0.824248|    0.012014|
|        5429|   -6.332299|   -8.514204|    0.824248|    0.012014|
|        5430|   -6.331999|   -8.514803|    0.824248|    0.012014|
|        5431|   -6.331848|   -8.515285|    0.824248|    0.012014|
|        5432|   -6.331860|   -8.515660|    0.824248|    0.012014|
|        5433|   -6.332050|   -8.515940|    0.824248|    0.012014|
|        5434|   -6.332432|   -8.516134|    0.824248|    0.012014|
|        5435|   -6.333020|   -8.516257|    0.824248|    0.012014|
|        5436|   -6.333828|   -8.516322|    0.824248|    0.012014|
|        5437|   -6.334868|   -8.516342|    0.824248|    0.012014|
|        5438|   -6.336151|   -8.516334|    0.824248|    0.012014|
|        5439|   -6.337687|   -8.516312|    0.824248|    0.012015|
|        5440|   -6.339485|   -8.516293|    0.824248|    0.012015|
|        5441|   -6.341551|   -8.516291|    0.824248|    0.012015|
|        5442|   -6.343892|   -8.516322|    0.824248|    0.012015|
|        5443|   -6.346508|   -8.516400|    0.824248|    0.012015|
|        5444|   -6.349400|   -8.516538|    0.824248|    0.012015|
|        5445|   -6.352566|   -8.516749|    0.824248|    0.012015|
|        5446|   -6.355999|   -8.517045|    0.824248|    0.012015|
|        5447|   -6.359692|   -8.517435|    0.824248|    0.012015|
|        5448|   -6.363633|   -8.517927|    0.824248|    0.012015|
|        5449|   -6.367805|   -8.518531|    0.824248|    0.012015|
|        5450|   -6.372191|   -8.519250|    0.824248|    0.012015|
|        5451|   -6.376767|   -8.520091|    0.824248|    0.012015|
|        5452|   -6.381508|   -8.521055|    0.824248|    0.012015|
|        5453|   -6.386383|   -8.522146|    0.824248|    0.012015|
|        5454|   -6.391360|   -8.523365|    0.824248|    0.012015|
|        5455|   -6.396401|   -8.524710|    0.824248|    0.012016|
|        5456|   -6.401467|   -8.526181|    0.824248|    0.012016|
|        5457|   -6.406516|   -8.527777|    0.824247|    0.012016|
|        5458|   -6.411503|   -8.529493|    0.824247|    0.012016|
|        5459|   -6.416382|   -8.531328|    0.824247|    0.012016|
|        5460|   -6.421108|   -8.533277|    0.824247|    0.012016|
|        5461|   -6.425634|   -8.535337|    0.824247|    0.012016|
|        5462|   -6.429918|   -8.537502|    0.824247|    0.012016|
|        5463|   -6.433916|   -8.539769|    0.824247|    0.012016|
|        5464|   -6.437591|   -8.542132|    0.824247|    0.012016|
|        5465|   -6.440909|   -8.544587|    0.824246|    0.012016|
|        5466|   -6.443845|   -8.547130|    0.824246|    0.012016|
|        5467|   -6.446375|   -8.549756|    0.824246|    0.012016|
|        5468|   -6.448487|   -8.552461|    0.824246|    0.012016|
|        5469|   -6.450175|   -8.555240|    0.824246|    0.012017|
|        5470|   -6.451440|   -8.558088|    0.824246|    0.012017|
|        5471|   -6.452290|   -8.561003|    0.824246|    0.012017|
|        5472|   -6.452743|   -8.563979|    0.824245|    0.012017|
|        5473|   -6.452821|   -8.567014|    0.824245|    0.012017|
|        5474|   -6.452551|   -8.570102|    0.824245|    0.012017|
|        5475|   -6.451968|   -8.573241|    0.824245|    0.012017|
|        5476|   -6.451106|   -8.576427|    0.824245|    0.012017|
|        5477|   -6.450005|   -8.579656|    0.824244|    0.012017|
|        5478|   -6.448706|   -8.582925|    0.824244|    0.012017|
|        5479|   -6.447250|   -8.586230|    0.824244|    0.012017|
|        5480|   -6.445678|   -8.589570|    0.824244|    0.012017|
|        5481|   -6.444030|   -8.592940|    0.824244|    0.012017|
|        5482|   -6.442344|   -8.596337|    0.824243|    0.012017|
|        5483|   -6.440657|   -8.599760|    0.824243|    0.012017|
|        5484|   -6.439002|   -8.603207|    0.824243|    0.012017|
|        5485|   -6.437412|   -8.606674|    0.824243|    0.012017|
|        5486|   -6.435915|   -8.610161|    0.824243|    0.012017|
|        5487|   -6.434536|   -8.613666|    0.824242|    0.012017|
|        5488|   -6.433299|   -8.617189|    0.824242|    0.012017|
|        5489|   -6.432224|   -8.620729|    0.824242|    0.012017|
|        5490|   -6.431328|   -8.624287|    0.824242|    0.012017|
|        5491|   -6.430625|   -8.627864|    0.824242|    0.012017|
|        5492|   -6.430129|   -8.631462|    0.824242|    0.012017|
|        5493|   -6.429849|   -8.635081|    0.824241|    0.012017|
|        5494|   -6.429793|   -8.638725|    0.824241|    0.012017|
|        5495|   -6.429967|   -8.642396|    0.824241|    0.012017|
|        5496|   -6.430375|   -8.646099|    0.824241|    0.012017|
|        5497|   -6.431019|   -8.649836|    0.824241|    0.012017|
|        5498|   -6.431900|   -8.653611|    0.824241|    0.012017|
|        5499|   -6.433018|   -8.657430|    0.824241|    0.012002|
+-----------------------------------------------------------------------+
|Fixed CL Mode (Finite Difference)       |Value                         |
+-----------------------------------------------------------------------+
|Delta CL / Delta AoA                    |0.240923                      |
|Delta CD / Delta CL                     |0.0181452                     |
|Delta CMz / Delta CL                    |0.00496624                    |
+-----------------------------------------------------------------------+
Writing Flow Meta-Data file: flow.meta

----------------------------- Solver Exit -------------------------------

Maximum number of iterations reached (ITER = 5500) before convergence.
+-----------------------------------------------------------------------+
|      Convergence Field     |     Value    |   Criterion  |  Converged |
+-----------------------------------------------------------------------+
|                    rms[Rho]|      -6.43302|         < -12|          No|
+-----------------------------------------------------------------------+
-------------------------------------------------------------------------

--------------------------- Finalizing Solver ---------------------------
Deleted CNumerics container.
Deleted CIntegration container.
Deleted CSolver container.
Deleted CIteration container.
Deleted CInterface container.
Deleted CGeometry container.
Deleted CFreeFormDefBox class.
Deleted CSurfaceMovement class.
Deleted CVolumetricMovement class.
Deleted CConfig container.
Deleted nInst container.
Deleted COutput class.
-------------------------------------------------------------------------

------------------------- Exit Success (SU2_CFD) ------------------------


-------------------------------------------------------------------------
|    ___ _   _ ___                                                      |
|   / __| | | |_  )   Release 8.0.0 "Harrier"                           |
|   \__ \ |_| |/ /                                                      |
|   |___/\___//___|   Suite (Solution Exporting Code)                   |
|                                                                       |
-------------------------------------------------------------------------
| SU2 Project Website: https://su2code.github.io                        |
|                                                                       |
| The SU2 Project is maintained by the SU2 Foundation                   |
| (http://su2foundation.org)                                            |
-------------------------------------------------------------------------
| Copyright 2012-2023, SU2 Contributors                                 |
|                                                                       |
| SU2 is free software; you can redistribute it and/or                  |
| modify it under the terms of the GNU Lesser General Public            |
| License as published by the Free Software Foundation; either          |
| version 2.1 of the License, or (at your option) any later version.    |
|                                                                       |
| SU2 is distributed in the hope that it will be useful,                |
| but WITHOUT ANY WARRANTY; without even the implied warranty of        |
| MERCHANTABILITY or FITNESS FOR A PARTICULAR PURPOSE. See the GNU      |
| Lesser General Public License for more details.                       |
|                                                                       |
| You should have received a copy of the GNU Lesser General Public      |
| License along with SU2. If not, see <http://www.gnu.org/licenses/>.   |
-------------------------------------------------------------------------

----------------- Physical Case Definition ( Zone 0 ) -------------------
Input mesh file name: mesh_RAE2822_turb_deform.su2

-------------------- Output Information ( Zone 0 ) ----------------------
The tabular file format is CSV (.csv).
Flow variables file name: flow.

------------- Config File Boundary Information ( Zone 0 ) ---------------
+-----------------------------------------------------------------------+
|                        Marker Type|                        Marker Name|
+-----------------------------------------------------------------------+
|                          Far-field|                           FARFIELD|
+-----------------------------------------------------------------------+
|                     Heat flux wall|                            AIRFOIL|
+-----------------------------------------------------------------------+
Two dimensional problem.
13937 grid points before partitioning.
22842 volume elements before partitioning.
2 surface markers.
192 boundary elements in index 0 (Marker = AIRFOIL).
40 boundary elements in index 1 (Marker = FARFIELD).
Executing the partitioning functions.
Building the graph adjacency structure.
Calling ParMETIS... graph partitioning complete (831 edge cuts).
Distributing ParMETIS coloring.
Rebalancing vertices.
Rebalancing volume element connectivity.
Rebalancing markers and surface elements.
14875 vertices including ghost points. 
23674 interior elements including halo cells. 
18780 triangles.
4894 quadrilaterals.
Establishing MPI communication patterns.
Identify vertices.
Storing a mapping from global to local point index.

------------------------- Solution Postprocessing -----------------------
Reading and storing the solution from restart_flow.
Volume output fields: COORDINATES, SOLUTION
  Info: Ignoring the following screen output fields:
  RMS_DENSITY, RMS_NU_TILDE, LIFT, DRAG
Screen output fields: INNER_ITER
  Info: Ignoring the following history output groups:
  RMS_RES, AERO_COEFF
History output group(s): ITER
Warning: No (valid) fields chosen for convergence monitoring. Convergence monitoring inactive.
Warning: No (valid) fields chosen for time convergence monitoring. Time convergence monitoring inactive.
|Paraview                           |flow.vtu                           |
|Paraview surface                   |surface_flow.vtu                   |
|CSV file                           |surface_flow.csv                   |

------------------------- Finalize Solver -------------------------
Deleted CGeometry container.
Deleted CSolver class.
Deleted CConfig container.
Deleted COutput class.

Completed in 0.016350 seconds on 6 cores.

------------------------- Exit Success (SU2_SOL) ------------------------

