
-------------------------------------------------------------------------
|    ___ _   _ ___                                                      |
|   / __| | | |_  )   Release 8.0.0 "Harrier"                           |
|   \__ \ |_| |/ /                                                      |
|   |___/\___//___|   Suite (Computational Fluid Dynamics Code)         |
|                                                                       |
-------------------------------------------------------------------------
| SU2 Project Website: https://su2code.github.io                        |
|                                                                       |
| The SU2 Project is maintained by the SU2 Foundation                   |
| (http://su2foundation.org)                                            |
-------------------------------------------------------------------------
| Copyright 2012-2023, SU2 Contributors                                 |
|                                                                       |
| SU2 is free software; you can redistribute it and/or                  |
| modify it under the terms of the GNU Lesser General Public            |
| License as published by the Free Software Foundation; either          |
| version 2.1 of the License, or (at your option) any later version.    |
|                                                                       |
| SU2 is distributed in the hope that it will be useful,                |
| but WITHOUT ANY WARRANTY; without even the implied warranty of        |
| MERCHANTABILITY or FITNESS FOR A PARTICULAR PURPOSE. See the GNU      |
| Lesser General Public License for more details.                       |
|                                                                       |
| You should have received a copy of the GNU Lesser General Public      |
| License along with SU2. If not, see <http://www.gnu.org/licenses/>.   |
-------------------------------------------------------------------------

Parsing config file for zone 0

----------------- Physical Case Definition ( Zone 0 ) -------------------
Compressible RANS equations.
Turbulence model: Spalart-Allmaras-noft2
Hybrid RANS/LES: No Hybrid RANS/LES
Mach number: 0.734.
Angle of attack (AoA): 2.31 deg, and angle of sideslip (AoS): 0 deg.
Reynolds number: 6.5e+06. Reference length 1.
Fixed CL mode, target value: 0.824.
Reading and writing binary SU2 native restart files.
Read flow solution from: solution_flow.dat.
Dimensional simulation.
The reference area is 1 m^2.
The semi-span will be computed using the max y(3D) value.
The reference length is 1 m.
Reference origin for moment evaluation is (0.25, 0, 0).
Surface(s) where the force coefficients are evaluated: AIRFOIL.

Surface(s) plotted in the output file: AIRFOIL.
Surface(s) affected by the design variables: AIRFOIL.
Input mesh file name: mesh_RAE2822_turb_deform.su2

--------------- Space Numerical Integration ( Zone 0 ) ------------------
Jameson-Schmidt-Turkel scheme (2nd order in space) for the flow inviscid terms.
JST viscous coefficients (2nd & 4th): 0.5, 0.02.
The method includes a grid stretching correction (p = 0.3).
Scalar upwind solver for the turbulence model.
First order integration in space.
Average of gradients with correction (viscous flow terms).
Average of gradients with correction (viscous turbulence terms).
Gradient for viscous and source terms: inverse-distance weighted Least-Squares.

--------------- Time Numerical Integration  ( Zone 0 ) ------------------
Local time stepping (steady state simulation).
Euler implicit method for the flow equations.
FGMRES is used for solving the linear system.
Using a ILU(0) preconditioning.
Convergence criteria of the linear solver: 1e-06.
Max number of linear iterations: 10.
No CFL adaptation.
Courant-Friedrichs-Lewy number:       10
Euler implicit time integration for the turbulence model.

------------------ Convergence Criteria  ( Zone 0 ) ---------------------
Maximum number of solver subiterations: 5500.
Begin convergence monitoring at iteration 10.
Residual minimum value: 1e-12.
Cauchy series min. value: 1e-06.
Number of Cauchy elements: 100.
Begin windowed time average at iteration 0.

-------------------- Output Information ( Zone 0 ) ----------------------
File writing frequency: 
+------------------------------------+
|                     File| Frequency|
+------------------------------------+
|                  RESTART|     10000|
|                 PARAVIEW|     10000|
|         SURFACE_PARAVIEW|     10000|
|              SURFACE_CSV|     10000|
+------------------------------------+
Writing the convergence history file every 1 inner iterations.
Writing the screen convergence history every 1 inner iterations.
The tabular file format is CSV (.csv).
Convergence history file name: history_direct.
Forces breakdown file name: forces_breakdown.dat.
Surface file name: surface_flow.
Volume file name: flow.
Restart file name: restart_flow.dat.

------------- Config File Boundary Information ( Zone 0 ) ---------------
+-----------------------------------------------------------------------+
|                        Marker Type|                        Marker Name|
+-----------------------------------------------------------------------+
|                          Far-field|                           FARFIELD|
+-----------------------------------------------------------------------+
|                     Heat flux wall|                            AIRFOIL|
+-----------------------------------------------------------------------+

-------------------- Output Preprocessing ( Zone 0 ) --------------------

WARNING: SURFACE_PRESSURE_DROP can only be computed for at least 2 surfaces (outlet, inlet, ...)

Screen output fields: INNER_ITER, RMS_DENSITY, RMS_NU_TILDE, LIFT, DRAG
History output group(s): ITER, RMS_RES, AERO_COEFF
Convergence field(s): RMS_DENSITY
Warning: No (valid) fields chosen for time convergence monitoring. Time convergence monitoring inactive.
Volume output fields: COORDINATES, SOLUTION, PRIMITIVE

------------------- Geometry Preprocessing ( Zone 0 ) -------------------
Two dimensional problem.
13937 grid points before partitioning.
22842 volume elements before partitioning.
2 surface markers.
192 boundary elements in index 0 (Marker = AIRFOIL).
40 boundary elements in index 1 (Marker = FARFIELD).
Executing the partitioning functions.
Building the graph adjacency structure.
Calling ParMETIS... graph partitioning complete (831 edge cuts).
Distributing ParMETIS coloring.
Rebalancing vertices.
Rebalancing volume element connectivity.
Rebalancing markers and surface elements.
14875 vertices including ghost points. 
23674 interior elements including halo cells. 
18780 triangles.
4894 quadrilaterals.
Establishing MPI communication patterns.
Setting point connectivity.
Renumbering points (Reverse Cuthill McKee Ordering).
Recomputing point connectivity.
Setting element connectivity.
Checking the numerical grid orientation.
All volume elements are correctly orientend.
All surface elements are correctly orientend.
Identifying edges and vertices.
Setting the control volume structure.
Area of the computational grid: 32209.9.
Searching for the closest normal neighbors to the surfaces.
Storing a mapping from global to local point index.
Compute the surface curvature.
Max K: 171.754. Mean K: 7.76457. Standard deviation K: 23.6242.
Checking for periodicity.
Computing mesh quality statistics for the dual control volumes.
+--------------------------------------------------------------+
|           Mesh Quality Metric|        Minimum|        Maximum|
+--------------------------------------------------------------+
|    Orthogonality Angle (deg.)|        75.1649|        89.9991|
|     CV Face Area Aspect Ratio|        1.00369|        3358.53|
|           CV Sub-Volume Ratio|        1.00048|        1214.87|
+--------------------------------------------------------------+
Finding max control volume width.
Communicating number of neighbors.
Wetted area = 2.02201 m.
Area projection in the x-plane = 0.124799 m, y-plane = 0.995873 m.
Max. coordinate in the x-direction = 1 m, y-direction = 0.0622182 m.
Min. coordinate in the x-direction = 0 m, y-direction = -0.0598834 m.
Computing wall distances.

-------------------- Solver Preprocessing ( Zone 0 ) --------------------
WARNING: AoA in the solution file (2.79035 deg.) +
         AoA offset in mesh file (0 deg.) = 2.79035 deg.
WARNING: SU2 will use the dCD/dCL provided in the direct solution file: 0.0173076.
WARNING: SU2 will use the dCMz/dCL provided in the direct solution file: -0.000905189.
Viscous flow: Computing pressure using the ideal gas law
based on the free-stream temperature and a density computed
from the Reynolds number.
Force coefficients computed using free-stream values.

-- Models:
+------------------------------------------------------------------------------+
|          Viscosity Model|        Conductivity Model|              Fluid Model|
+------------------------------------------------------------------------------+
|               SUTHERLAND|          CONSTANT_PRANDTL|             STANDARD_AIR|
+------------------------------------------------------------------------------+
-- Fluid properties:
+------------------------------------------------------------------------------+
|                  Name|    Dim. value|    Ref. value|      Unit|Non-dim. value|
+------------------------------------------------------------------------------+
|        Ref. Viscosity|     1.716e-05|             1|   N.s/m^2|     1.716e-05|
|      Sutherland Temp.|        273.15|             1|         K|        273.15|
|     Sutherland Const.|         110.4|             1|         K|         110.4|
+------------------------------------------------------------------------------+
|        Prandtl (Lam.)|             -|             -|         -|          0.71|
|       Prandtl (Turb.)|             -|             -|         -|           0.9|
+------------------------------------------------------------------------------+
|          Gas Constant|       287.058|             1|  N.m/kg.K|       287.058|
|      Spec. Heat Ratio|             -|             -|         -|           1.4|
+------------------------------------------------------------------------------+
-- Initial and free-stream conditions:
+------------------------------------------------------------------------------+
|                  Name|    Dim. value|    Ref. value|      Unit|Non-dim. value|
+------------------------------------------------------------------------------+
|       Static Pressure|         38515|             1|        Pa|         38515|
|               Density|      0.465631|             1|    kg/m^3|      0.465631|
|           Temperature|        288.15|             1|         K|        288.15|
|          Total Energy|        237984|             1|   m^2/s^2|        237984|
|            Velocity-X|       249.482|             1|       m/s|       249.482|
|            Velocity-Y|       12.1596|             1|       m/s|       12.1596|
|    Velocity Magnitude|       249.778|             1|       m/s|       249.778|
+------------------------------------------------------------------------------+
|             Viscosity|    1.7893e-05|             1|   N.s/m^2|    1.7893e-05|
|          Conductivity|             -|             1|   W/m^2.K|             -|
|     Turb. Kin. Energy|       233.959|             1|   m^2/s^2|       233.959|
|     Spec. Dissipation|        608834|             1|       1/s|        608834|
+------------------------------------------------------------------------------+
|           Mach Number|             -|             -|         -|         0.734|
|       Reynolds Number|             -|             -|         -|       6.5e+06|
+------------------------------------------------------------------------------+
Initialize Jacobian structure (Navier-Stokes). MG level: 0.
Initialize Jacobian structure (SA model).

------------------- Numerics Preprocessing ( Zone 0 ) -------------------

----------------- Integration Preprocessing ( Zone 0 ) ------------------

------------------- Iteration Preprocessing ( Zone 0 ) ------------------
Euler/Navier-Stokes/RANS fluid iteration.

------------------------------ Begin Solver -----------------------------

Simulation Run using the Single-zone Driver
WARNING: SU2 was not compiled for an AVX-capable architecture. Performance could be better,
         see https://su2code.github.io/docs_v7/Build-SU2-Linux-MacOS/#compiler-optimizations
+----------------------------------------------------------------+
|  Inner_Iter|    rms[Rho]|     rms[nu]|          CL|          CD|
+----------------------------------------------------------------+
|           0|   -7.359768|   -8.595922|    0.824000|    0.012023|
|           1|   -7.418738|   -8.700667|    0.824000|    0.012023|
|           2|   -7.484025|   -8.818306|    0.824000|    0.012023|
|           3|   -7.539526|   -8.943251|    0.824000|    0.012023|
|           4|   -7.583327|   -9.069192|    0.824000|    0.012023|
|           5|   -7.613605|   -9.182037|    0.824000|    0.012023|
|           6|   -7.629830|   -9.255100|    0.824000|    0.012023|
|           7|   -7.635168|   -9.270411|    0.824000|    0.012023|
|           8|   -7.633895|   -9.247531|    0.824000|    0.012023|
|           9|   -7.628455|   -9.217888|    0.824000|    0.012023|
|          10|   -7.619540|   -9.198000|    0.824000|    0.012023|
|          11|   -7.607649|   -9.192154|    0.824000|    0.012023|
|          12|   -7.593947|   -9.198988|    0.824000|    0.012023|
|          13|   -7.580053|   -9.213923|    0.824000|    0.012023|
|          14|   -7.567457|   -9.229173|    0.824000|    0.012023|
|          15|   -7.557168|   -9.234430|    0.824000|    0.012023|
|          16|   -7.549628|   -9.221670|    0.824000|    0.012023|
|          17|   -7.544751|   -9.191685|    0.824000|    0.012023|
|          18|   -7.542018|   -9.153395|    0.824000|    0.012023|
|          19|   -7.540631|   -9.116772|    0.824000|    0.012023|
|          20|   -7.539749|   -9.088437|    0.824000|    0.012023|
|          21|   -7.538744|   -9.071525|    0.824000|    0.012023|
|          22|   -7.537377|   -9.066882|    0.824000|    0.012023|
|          23|   -7.535796|   -9.073953|    0.824000|    0.012023|
|          24|   -7.534381|   -9.091150|    0.824000|    0.012023|
|          25|   -7.533525|   -9.115865|    0.824000|    0.012023|
|          26|   -7.533464|   -9.144371|    0.824000|    0.012023|
|          27|   -7.534204|   -9.172010|    0.824000|    0.012023|
|          28|   -7.535555|   -9.194148|    0.824000|    0.012023|
|          29|   -7.537215|   -9.207870|    0.824000|    0.012023|
|          30|   -7.538871|   -9.213261|    0.824001|    0.012023|
|          31|   -7.540275|   -9.213025|    0.824001|    0.012023|
|          32|   -7.541283|   -9.210813|    0.824001|    0.012023|
|          33|   -7.541849|   -9.209735|    0.824001|    0.012023|
|          34|   -7.541998|   -9.211766|    0.824001|    0.012023|
|          35|   -7.541795|   -9.217778|    0.824001|    0.012023|
|          36|   -7.541309|   -9.227789|    0.824001|    0.012023|
|          37|   -7.540609|   -9.241200|    0.824001|    0.012023|
|          38|   -7.539749|   -9.256979|    0.824001|    0.012023|
|          39|   -7.538778|   -9.273820|    0.824001|    0.012023|
|          40|   -7.537741|   -9.290319|    0.824001|    0.012023|
|          41|   -7.536677|   -9.305179|    0.824001|    0.012023|
|          42|   -7.535625|   -9.317411|    0.824001|    0.012023|
|          43|   -7.534613|   -9.326489|    0.824001|    0.012023|
|          44|   -7.533658|   -9.332371|    0.824001|    0.012023|
|          45|   -7.532761|   -9.335402|    0.824001|    0.012023|
|          46|   -7.531904|   -9.336147|    0.824001|    0.012023|
|          47|   -7.531049|   -9.335226|    0.824001|    0.012023|
|          48|   -7.530148|   -9.333205|    0.824001|    0.012023|
|          49|   -7.529142|   -9.330551|    0.824001|    0.012023|
|          50|   -7.527976|   -9.327635|    0.824001|    0.012023|
|          51|   -7.526609|   -9.324748|    0.824001|    0.012023|
|          52|   -7.525018|   -9.322129|    0.824001|    0.012023|
|          53|   -7.523207|   -9.319981|    0.824001|    0.012023|
|          54|   -7.521209|   -9.318475|    0.824001|    0.012023|
|          55|   -7.519076|   -9.317751|    0.824001|    0.012023|
|          56|   -7.516879|   -9.317912|    0.824001|    0.012023|
|          57|   -7.514692|   -9.319020|    0.824001|    0.012023|
|          58|   -7.512582|   -9.321092|    0.824001|    0.012023|
|          59|   -7.510607|   -9.324100|    0.824001|    0.012023|
|          60|   -7.508803|   -9.327976|    0.824001|    0.012023|
|          61|   -7.507187|   -9.332618|    0.824001|    0.012023|
|          62|   -7.505759|   -9.337899|    0.824001|    0.012023|
|          63|   -7.504506|   -9.343681|    0.824001|    0.012023|
|          64|   -7.503409|   -9.349819|    0.824001|    0.012023|
|          65|   -7.502449|   -9.356181|    0.824002|    0.012023|
|          66|   -7.501611|   -9.362648|    0.824002|    0.012023|
|          67|   -7.500889|   -9.369125|    0.824002|    0.012023|
|          68|   -7.500284|   -9.375540|    0.824002|    0.012023|
|          69|   -7.499807|   -9.381845|    0.824002|    0.012023|
|          70|   -7.499468|   -9.388013|    0.824002|    0.012023|
|          71|   -7.499279|   -9.394032|    0.824002|    0.012023|
|          72|   -7.499250|   -9.399905|    0.824002|    0.012023|
|          73|   -7.499385|   -9.405643|    0.824002|    0.012023|
|          74|   -7.499684|   -9.411263|    0.824002|    0.012023|
|          75|   -7.500140|   -9.416784|    0.824002|    0.012023|
|          76|   -7.500749|   -9.422231|    0.824002|    0.012023|
|          77|   -7.501506|   -9.427624|    0.824002|    0.012023|
|          78|   -7.502407|   -9.432985|    0.824002|    0.012023|
|          79|   -7.503454|   -9.438330|    0.824002|    0.012023|
|          80|   -7.504652|   -9.443672|    0.824002|    0.012023|
|          81|   -7.506008|   -9.449016|    0.824002|    0.012023|
|          82|   -7.507528|   -9.454360|    0.824002|    0.012023|
|          83|   -7.509213|   -9.459694|    0.824002|    0.012023|
|          84|   -7.511059|   -9.465000|    0.824002|    0.012023|
|          85|   -7.513052|   -9.470252|    0.824002|    0.012023|
|          86|   -7.515168|   -9.475418|    0.824002|    0.012023|
|          87|   -7.517373|   -9.480462|    0.824002|    0.012023|
|          88|   -7.519625|   -9.485350|    0.824002|    0.012023|
|          89|   -7.521876|   -9.490044|    0.824002|    0.012023|
|          90|   -7.524079|   -9.494515|    0.824002|    0.012023|
|          91|   -7.526189|   -9.498738|    0.824002|    0.012023|
|          92|   -7.528169|   -9.502697|    0.824002|    0.012023|
|          93|   -7.529993|   -9.506389|    0.824002|    0.012023|
|          94|   -7.531650|   -9.509818|    0.824002|    0.012023|
|          95|   -7.533143|   -9.513003|    0.824002|    0.012023|
|          96|   -7.534493|   -9.515968|    0.824002|    0.012023|
|          97|   -7.535730|   -9.518749|    0.824002|    0.012023|
|          98|   -7.536898|   -9.521386|    0.824002|    0.012023|
|          99|   -7.538048|   -9.523922|    0.824002|    0.012023|
|         100|   -7.539234|   -9.526404|    0.824002|    0.012023|
|         101|   -7.540511|   -9.528878|    0.824002|    0.012023|
+-----------------------------------------------------------------------+
|Fixed CL Mode                           |Value                         |
+-----------------------------------------------------------------------+
|Current CL                              |0.824002                      |
|Target CL                               |0.824                         |
|Previous AOA                            |2.79035                       |
|Changed AoA by                          |-8.28232e-06                  |
+-----------------------------------------------------------------------+
+----------------------------------------------------------------+
|  Inner_Iter|    rms[Rho]|     rms[nu]|          CL|          CD|
+----------------------------------------------------------------+
|         102|   -5.275229|   -9.290558|    0.824002|    0.012023|
|         103|   -5.659982|   -9.383067|    0.824002|    0.012023|
|         104|   -5.905292|   -9.419647|    0.824002|    0.012023|
|         105|   -5.985222|   -9.442438|    0.824002|    0.012023|
|         106|   -6.039560|   -9.460287|    0.824002|    0.012023|
|         107|   -6.109916|   -9.475404|    0.824002|    0.012023|
|         108|   -6.196947|   -9.488432|    0.824002|    0.012023|
|         109|   -6.287781|   -9.499733|    0.824002|    0.012023|
|         110|   -6.365490|   -9.509504|    0.824002|    0.012023|
|         111|   -6.421439|   -9.517714|    0.824002|    0.012023|
|         112|   -6.457493|   -9.524405|    0.824002|    0.012023|
|         113|   -6.477918|   -9.529981|    0.824002|    0.012023|
|         114|   -6.486865|   -9.535069|    0.824002|    0.012023|
|         115|   -6.490291|   -9.540157|    0.824002|    0.012023|
|         116|   -6.494766|   -9.545411|    0.824002|    0.012023|
|         117|   -6.504645|   -9.550802|    0.824002|    0.012023|
|         118|   -6.520906|   -9.556253|    0.824002|    0.012023|
|         119|   -6.541707|   -9.561828|    0.824001|    0.012023|
|         120|   -6.563851|   -9.567666|    0.824001|    0.012023|
|         121|   -6.584618|   -9.573882|    0.824001|    0.012023|
|         122|   -6.603092|   -9.580487|    0.824001|    0.012023|
|         123|   -6.620119|   -9.587380|    0.824001|    0.012023|
|         124|   -6.637143|   -9.594389|    0.824001|    0.012023|
|         125|   -6.655083|   -9.601332|    0.824001|    0.012023|
|         126|   -6.673931|   -9.608066|    0.824001|    0.012023|
|         127|   -6.692967|   -9.614501|    0.824001|    0.012023|
|         128|   -6.711182|   -9.620591|    0.824001|    0.012023|
|         129|   -6.727624|   -9.626324|    0.824001|    0.012023|
|         130|   -6.741596|   -9.631719|    0.824001|    0.012023|
|         131|   -6.752795|   -9.636817|    0.824001|    0.012023|
|         132|   -6.761423|   -9.641679|    0.824001|    0.012023|
|         133|   -6.768192|   -9.646363|    0.824001|    0.012023|
|         134|   -6.774170|   -9.650916|    0.824001|    0.012023|
|         135|   -6.780503|   -9.655300|    0.824001|    0.012023|
|         136|   -6.788155|   -9.659720|    0.824001|    0.012023|
|         137|   -6.797732|   -9.663990|    0.824001|    0.012023|
|         138|   -6.809415|   -9.668092|    0.824001|    0.012023|
|         139|   -6.822956|   -9.671971|    0.824001|    0.012023|
|         140|   -6.837709|   -9.675580|    0.824001|    0.012023|
|         141|   -6.852715|   -9.678859|    0.824001|    0.012023|
|         142|   -6.866886|   -9.681748|    0.824001|    0.012023|
|         143|   -6.879258|   -9.684196|    0.824001|    0.012023|
|         144|   -6.889291|   -9.686165|    0.824001|    0.012023|
|         145|   -6.897041|   -9.687621|    0.824001|    0.012023|
|         146|   -6.903129|   -9.688531|    0.824001|    0.012023|
|         147|   -6.908508|   -9.688904|    0.824001|    0.012023|
|         148|   -6.914173|   -9.688686|    0.824001|    0.012023|
|         149|   -6.920911|   -9.687780|    0.824001|    0.012023|
|         150|   -6.929175|   -9.686152|    0.824001|    0.012023|
|         151|   -6.939061|   -9.683802|    0.824001|    0.012023|
|         152|   -6.950351|   -9.680749|    0.824001|    0.012023|
|         153|   -6.962603|   -9.677038|    0.824001|    0.012023|
|         154|   -6.975266|   -9.672741|    0.824001|    0.012023|
|         155|   -6.987800|   -9.667957|    0.824001|    0.012023|
|         156|   -6.999791|   -9.662815|    0.824001|    0.012023|
|         157|   -7.011014|   -9.657462|    0.824001|    0.012023|
|         158|   -7.021455|   -9.652061|    0.824001|    0.012023|
|         159|   -7.031273|   -9.646783|    0.824001|    0.012023|
|         160|   -7.040722|   -9.641795|    0.824001|    0.012023|
|         161|   -7.050082|   -9.637263|    0.824001|    0.012023|
|         162|   -7.059588|   -9.633339|    0.824001|    0.012023|
|         163|   -7.069400|   -9.630167|    0.824001|    0.012023|
|         164|   -7.079599|   -9.627872|    0.824001|    0.012023|
|         165|   -7.090193|   -9.626563|    0.824001|    0.012023|
|         166|   -7.101146|   -9.626332|    0.824000|    0.012023|
|         167|   -7.112400|   -9.627249|    0.824000|    0.012023|
|         168|   -7.123894|   -9.629362|    0.824000|    0.012023|
|         169|   -7.135580|   -9.632689|    0.824000|    0.012023|
|         170|   -7.147419|   -9.637236|    0.824000|    0.012023|
|         171|   -7.159384|   -9.642956|    0.824000|    0.012023|
|         172|   -7.171448|   -9.649764|    0.824000|    0.012023|
|         173|   -7.183574|   -9.657529|    0.824000|    0.012023|
|         174|   -7.195713|   -9.666067|    0.824000|    0.012023|
|         175|   -7.207796|   -9.675130|    0.824000|    0.012023|
|         176|   -7.219739|   -9.684405|    0.824000|    0.012023|
|         177|   -7.231439|   -9.693517|    0.824000|    0.012023|
|         178|   -7.242788|   -9.702036|    0.824000|    0.012023|
|         179|   -7.253672|   -9.709508|    0.824000|    0.012023|
|         180|   -7.263981|   -9.715486|    0.824000|    0.012023|
|         181|   -7.273615|   -9.719564|    0.824000|    0.012023|
|         182|   -7.282489|   -9.721451|    0.824000|    0.012023|
|         183|   -7.290536|   -9.721003|    0.824000|    0.012023|
|         184|   -7.297714|   -9.718251|    0.824000|    0.012023|
|         185|   -7.304009|   -9.713391|    0.824000|    0.012023|
|         186|   -7.309433|   -9.706761|    0.824000|    0.012023|
|         187|   -7.314024|   -9.698795|    0.824000|    0.012023|
|         188|   -7.317849|   -9.689968|    0.824000|    0.012023|
|         189|   -7.320994|   -9.680753|    0.824000|    0.012023|
|         190|   -7.323563|   -9.671591|    0.824000|    0.012023|
|         191|   -7.325668|   -9.662871|    0.824000|    0.012023|
|         192|   -7.327429|   -9.654918|    0.824000|    0.012023|
|         193|   -7.328963|   -9.648000|    0.824000|    0.012023|
|         194|   -7.330382|   -9.642327|    0.824000|    0.012023|
|         195|   -7.331787|   -9.638060|    0.824000|    0.012023|
|         196|   -7.333268|   -9.635322|    0.824000|    0.012023|
|         197|   -7.334900|   -9.634199|    0.824000|    0.012023|
|         198|   -7.336744|   -9.634746|    0.824000|    0.012023|
|         199|   -7.338847|   -9.636997|    0.824000|    0.012023|
|         200|   -7.341240|   -9.640960|    0.824000|    0.012023|
|         201|   -7.343941|   -9.646620|    0.824000|    0.012023|
|         202|   -7.346955|   -9.653942|    0.824000|    0.012023|
|         203|   -7.350276|   -9.662862|    0.824000|    0.012023|
|         204|   -7.353887|   -9.673285|    0.824000|    0.012023|
|         205|   -7.357760|   -9.685080|    0.824000|    0.012023|
|         206|   -7.361859|   -9.698069|    0.824000|    0.012023|
|         207|   -7.366142|   -9.712020|    0.824000|    0.012023|
|         208|   -7.370560|   -9.726634|    0.824000|    0.012023|
|         209|   -7.375058|   -9.741541|    0.824000|    0.012023|
|         210|   -7.379581|   -9.756292|    0.824000|    0.012023|
|         211|   -7.384071|   -9.770369|    0.824000|    0.012023|
|         212|   -7.388472|   -9.783203|    0.824000|    0.012023|
|         213|   -7.392731|   -9.794215|    0.824000|    0.012023|
|         214|   -7.396803|   -9.802868|    0.824000|    0.012023|
|         215|   -7.400648|   -9.808740|    0.824000|    0.012023|
|         216|   -7.404237|   -9.811577|    0.824000|    0.012023|
|         217|   -7.407549|   -9.811343|    0.824000|    0.012023|
|         218|   -7.410579|   -9.808213|    0.824001|    0.012023|
|         219|   -7.413330|   -9.802549|    0.824001|    0.012023|
|         220|   -7.415817|   -9.794835|    0.824001|    0.012023|
|         221|   -7.418066|   -9.785611|    0.824001|    0.012023|
|         222|   -7.420112|   -9.775417|    0.824001|    0.012023|
|         223|   -7.421993|   -9.764747|    0.824001|    0.012023|
|         224|   -7.423756|   -9.754027|    0.824001|    0.012023|
|         225|   -7.425449|   -9.743609|    0.824001|    0.012023|
|         226|   -7.427119|   -9.733768|    0.824001|    0.012023|
|         227|   -7.428813|   -9.724714|    0.824001|    0.012023|
|         228|   -7.430575|   -9.716597|    0.824001|    0.012023|
|         229|   -7.432444|   -9.709523|    0.824001|    0.012023|
|         230|   -7.434454|   -9.703557|    0.824001|    0.012023|
|         231|   -7.436633|   -9.698734|    0.824001|    0.012023|
|         232|   -7.439002|   -9.695061|    0.824001|    0.012023|
|         233|   -7.441575|   -9.692528|    0.824000|    0.012023|
|         234|   -7.444360|   -9.691104|    0.824000|    0.012023|
|         235|   -7.447358|   -9.690744|    0.824000|    0.012023|
|         236|   -7.450562|   -9.691388|    0.824000|    0.012023|
|         237|   -7.453961|   -9.692963|    0.824000|    0.012023|
|         238|   -7.457539|   -9.695385|    0.824000|    0.012023|
|         239|   -7.461272|   -9.698556|    0.824000|    0.012023|
|         240|   -7.465137|   -9.702372|    0.824000|    0.012023|
|         241|   -7.469105|   -9.706715|    0.824000|    0.012023|
|         242|   -7.473146|   -9.711462|    0.824000|    0.012023|
|         243|   -7.477231|   -9.716485|    0.824000|    0.012023|
|         244|   -7.481331|   -9.721653|    0.824000|    0.012023|
|         245|   -7.485418|   -9.726841|    0.824000|    0.012023|
|         246|   -7.489467|   -9.731925|    0.824000|    0.012023|
|         247|   -7.493458|   -9.736795|    0.824000|    0.012023|
|         248|   -7.497374|   -9.741358|    0.824000|    0.012023|
|         249|   -7.501204|   -9.745538|    0.824000|    0.012023|
|         250|   -7.504941|   -9.749281|    0.824000|    0.012023|
|         251|   -7.508583|   -9.752557|    0.824000|    0.012023|
|         252|   -7.512133|   -9.755360|    0.824000|    0.012023|
|         253|   -7.515596|   -9.757702|    0.824000|    0.012023|
|         254|   -7.518983|   -9.759614|    0.824000|    0.012023|
|         255|   -7.522303|   -9.761140|    0.824000|    0.012023|
|         256|   -7.525569|   -9.762329|    0.824000|    0.012023|
|         257|   -7.528792|   -9.763235|    0.824000|    0.012023|
|         258|   -7.531981|   -9.763908|    0.824000|    0.012023|
|         259|   -7.535142|   -9.764393|    0.824000|    0.012023|
|         260|   -7.538278|   -9.764724|    0.824000|    0.012023|
|         261|   -7.541389|   -9.764926|    0.824000|    0.012023|
|         262|   -7.544466|   -9.765012|    0.824000|    0.012023|
|         263|   -7.547499|   -9.764984|    0.824000|    0.012023|
|         264|   -7.550469|   -9.764833|    0.824000|    0.012023|
|         265|   -7.553353|   -9.764544|    0.824000|    0.012023|
|         266|   -7.556122|   -9.764099|    0.824000|    0.012023|
|         267|   -7.558745|   -9.763477|    0.824000|    0.012023|
|         268|   -7.561185|   -9.762659|    0.824000|    0.012023|
|         269|   -7.563404|   -9.761635|    0.824000|    0.012023|
|         270|   -7.565361|   -9.760400|    0.824000|    0.012023|
|         271|   -7.567018|   -9.758961|    0.824000|    0.012023|
|         272|   -7.568337|   -9.757338|    0.824000|    0.012023|
|         273|   -7.569286|   -9.755561|    0.824000|    0.012023|
|         274|   -7.569836|   -9.753673|    0.824000|    0.012023|
|         275|   -7.569965|   -9.751725|    0.824000|    0.012023|
|         276|   -7.569660|   -9.749776|    0.824000|    0.012023|
|         277|   -7.568915|   -9.747890|    0.824000|    0.012023|
|         278|   -7.567733|   -9.746133|    0.824000|    0.012023|
|         279|   -7.566127|   -9.744568|    0.824000|    0.012023|
|         280|   -7.564118|   -9.743255|    0.824000|    0.012023|
|         281|   -7.561735|   -9.742246|    0.824000|    0.012023|
|         282|   -7.559011|   -9.741585|    0.824000|    0.012023|
|         283|   -7.555989|   -9.741304|    0.824000|    0.012023|
|         284|   -7.552714|   -9.741426|    0.824000|    0.012023|
|         285|   -7.549232|   -9.741958|    0.824000|    0.012023|
|         286|   -7.545594|   -9.742895|    0.824000|    0.012023|
|         287|   -7.541848|   -9.744220|    0.824000|    0.012023|
|         288|   -7.538044|   -9.745901|    0.824000|    0.012023|
|         289|   -7.534228|   -9.747898|    0.824000|    0.012023|
|         290|   -7.530444|   -9.750156|    0.824000|    0.012023|
|         291|   -7.526735|   -9.752615|    0.824000|    0.012023|
|         292|   -7.523139|   -9.755206|    0.824000|    0.012023|
|         293|   -7.519689|   -9.757857|    0.824000|    0.012023|
|         294|   -7.516418|   -9.760497|    0.824000|    0.012023|
|         295|   -7.513352|   -9.763054|    0.824000|    0.012023|
|         296|   -7.510515|   -9.765464|    0.824000|    0.012023|
|         297|   -7.507927|   -9.767669|    0.824000|    0.012023|
|         298|   -7.505606|   -9.769622|    0.824000|    0.012023|
|         299|   -7.503564|   -9.771290|    0.824000|    0.012023|
|         300|   -7.501813|   -9.772651|    0.824000|    0.012023|
|         301|   -7.500361|   -9.773697|    0.824000|    0.012023|
|         302|   -7.499213|   -9.774434|    0.824000|    0.012023|
|         303|   -7.498374|   -9.774876|    0.824000|    0.012023|
|         304|   -7.497845|   -9.775049|    0.824000|    0.012023|
|         305|   -7.497624|   -9.774983|    0.824000|    0.012023|
|         306|   -7.497711|   -9.774713|    0.824000|    0.012023|
|         307|   -7.498100|   -9.774274|    0.824000|    0.012023|
|         308|   -7.498787|   -9.773702|    0.824000|    0.012023|
|         309|   -7.499765|   -9.773029|    0.824000|    0.012023|
|         310|   -7.501026|   -9.772285|    0.824000|    0.012023|
|         311|   -7.502561|   -9.771495|    0.824000|    0.012023|
|         312|   -7.504359|   -9.770680|    0.824000|    0.012023|
|         313|   -7.506410|   -9.769857|    0.824000|    0.012023|
|         314|   -7.508701|   -9.769041|    0.824000|    0.012023|
|         315|   -7.511217|   -9.768243|    0.824000|    0.012023|
|         316|   -7.513946|   -9.767475|    0.824000|    0.012023|
|         317|   -7.516870|   -9.766746|    0.824000|    0.012023|
|         318|   -7.519975|   -9.766066|    0.824000|    0.012023|
|         319|   -7.523241|   -9.765449|    0.824000|    0.012023|
|         320|   -7.526651|   -9.764907|    0.824000|    0.012023|
|         321|   -7.530184|   -9.764456|    0.824000|    0.012023|
|         322|   -7.533822|   -9.764113|    0.824000|    0.012023|
|         323|   -7.537542|   -9.763896|    0.824000|    0.012023|
|         324|   -7.541323|   -9.763824|    0.824000|    0.012023|
|         325|   -7.545142|   -9.763916|    0.824000|    0.012023|
|         326|   -7.548976|   -9.764191|    0.824000|    0.012023|
|         327|   -7.552801|   -9.764665|    0.824000|    0.012023|
|         328|   -7.556594|   -9.765353|    0.824000|    0.012023|
|         329|   -7.560330|   -9.766266|    0.824000|    0.012023|
|         330|   -7.563985|   -9.767411|    0.824000|    0.012023|
|         331|   -7.567536|   -9.768793|    0.824000|    0.012023|
|         332|   -7.570960|   -9.770409|    0.824000|    0.012023|
|         333|   -7.574235|   -9.772254|    0.824000|    0.012023|
|         334|   -7.577339|   -9.774318|    0.824000|    0.012023|
|         335|   -7.580253|   -9.776585|    0.824000|    0.012023|
|         336|   -7.582959|   -9.779038|    0.824000|    0.012023|
|         337|   -7.585439|   -9.781655|    0.824000|    0.012023|
|         338|   -7.587681|   -9.784411|    0.824000|    0.012023|
|         339|   -7.589671|   -9.787280|    0.824000|    0.012023|
|         340|   -7.591399|   -9.790237|    0.824000|    0.012023|
|         341|   -7.592861|   -9.793254|    0.824000|    0.012023|
|         342|   -7.594050|   -9.796305|    0.824000|    0.012023|
|         343|   -7.594966|   -9.799368|    0.824000|    0.012023|
|         344|   -7.595612|   -9.802422|    0.824000|    0.012023|
|         345|   -7.595991|   -9.805449|    0.824000|    0.012023|
|         346|   -7.596112|   -9.808437|    0.824000|    0.012023|
|         347|   -7.595987|   -9.811375|    0.824000|    0.012023|
|         348|   -7.595629|   -9.814261|    0.823999|    0.012023|
|         349|   -7.595055|   -9.817094|    0.823999|    0.012023|
|         350|   -7.594285|   -9.819878|    0.823999|    0.012023|
|         351|   -7.593341|   -9.822621|    0.823999|    0.012023|
|         352|   -7.592248|   -9.825336|    0.823999|    0.012023|
|         353|   -7.591032|   -9.828036|    0.823999|    0.012023|
|         354|   -7.589722|   -9.830740|    0.823999|    0.012023|
|         355|   -7.588347|   -9.833466|    0.823999|    0.012023|
|         356|   -7.586939|   -9.836234|    0.823999|    0.012023|
|         357|   -7.585528|   -9.839064|    0.823999|    0.012023|
|         358|   -7.584148|   -9.841978|    0.823999|    0.012023|
|         359|   -7.582831|   -9.844995|    0.823999|    0.012023|
|         360|   -7.581609|   -9.848134|    0.823999|    0.012023|
|         361|   -7.580515|   -9.851413|    0.823999|    0.012023|
|         362|   -7.579581|   -9.854847|    0.823999|    0.012023|
|         363|   -7.578837|   -9.858450|    0.823999|    0.012023|
|         364|   -7.578312|   -9.862233|    0.823999|    0.012023|
|         365|   -7.578035|   -9.866202|    0.823999|    0.012023|
|         366|   -7.578033|   -9.870363|    0.823999|    0.012023|
|         367|   -7.578331|   -9.874718|    0.823999|    0.012023|
|         368|   -7.578952|   -9.879263|    0.823999|    0.012023|
|         369|   -7.579918|   -9.883994|    0.823999|    0.012023|
|         370|   -7.581247|   -9.888901|    0.823999|    0.012023|
|         371|   -7.582956|   -9.893971|    0.823999|    0.012023|
|         372|   -7.585061|   -9.899187|    0.823999|    0.012023|
|         373|   -7.587572|   -9.904532|    0.823999|    0.012023|
|         374|   -7.590500|   -9.909982|    0.823999|    0.012023|
|         375|   -7.593850|   -9.915513|    0.823999|    0.012023|
|         376|   -7.597626|   -9.921100|    0.823999|    0.012023|
|         377|   -7.601828|   -9.926715|    0.823999|    0.012023|
|         378|   -7.606453|   -9.932330|    0.823999|    0.012023|
|         379|   -7.611494|   -9.937920|    0.823999|    0.012023|
|         380|   -7.616939|   -9.943458|    0.823999|    0.012023|
|         381|   -7.622775|   -9.948922|    0.823999|    0.012023|
|         382|   -7.628982|   -9.954290|    0.823999|    0.012023|
|         383|   -7.635534|   -9.959546|    0.823999|    0.012023|
|         384|   -7.642403|   -9.964677|    0.823999|    0.012023|
|         385|   -7.649553|   -9.969672|    0.823999|    0.012023|
|         386|   -7.656945|   -9.974527|    0.823999|    0.012023|
|         387|   -7.664533|   -9.979240|    0.823999|    0.012023|
|         388|   -7.672265|   -9.983813|    0.823999|    0.012023|
|         389|   -7.680084|   -9.988251|    0.823999|    0.012023|
|         390|   -7.687927|   -9.992559|    0.823999|    0.012023|
|         391|   -7.695728|   -9.996745|    0.823999|    0.012023|
|         392|   -7.703416|  -10.000818|    0.823999|    0.012023|
|         393|   -7.710919|  -10.004785|    0.823999|    0.012023|
|         394|   -7.718163|  -10.008653|    0.823999|    0.012023|
|         395|   -7.725075|  -10.012425|    0.823999|    0.012023|
|         396|   -7.731586|  -10.016104|    0.823999|    0.012023|
|         397|   -7.737631|  -10.019689|    0.823999|    0.012023|
|         398|   -7.743154|  -10.023178|    0.823999|    0.012023|
|         399|   -7.748107|  -10.026563|    0.823999|    0.012023|
|         400|   -7.752457|  -10.029838|    0.823999|    0.012023|
|         401|   -7.756181|  -10.032993|    0.823999|    0.012023|
+-----------------------------------------------------------------------+
|Fixed CL Mode                           |Value                         |
+-----------------------------------------------------------------------+
|Current CL                              |0.823999                      |
|Target CL                               |0.824                         |
|Previous AOA                            |2.79034                       |
|Changed AoA by                          |3.40247e-06                   |
+-----------------------------------------------------------------------+
+----------------------------------------------------------------+
|  Inner_Iter|    rms[Rho]|     rms[nu]|          CL|          CD|
+----------------------------------------------------------------+
|         402|   -5.661565|   -9.709674|    0.823999|    0.012023|
|         403|   -6.046054|   -9.821488|    0.823999|    0.012023|
|         404|   -6.290688|   -9.868685|    0.823999|    0.012023|
|         405|   -6.370349|   -9.898837|    0.823999|    0.012023|
|         406|   -6.424655|   -9.922479|    0.823999|    0.012023|
|         407|   -6.494976|   -9.942153|    0.823999|    0.012023|
|         408|   -6.581950|   -9.958486|    0.823999|    0.012023|
|         409|   -6.672791|   -9.971833|    0.823999|    0.012023|
|         410|   -6.750690|   -9.982401|    0.823999|    0.012023|
|         411|   -6.807005|   -9.990120|    0.823999|    0.012023|
|         412|   -6.843458|   -9.995087|    0.823999|    0.012023|
|         413|   -6.864173|   -9.998021|    0.823999|    0.012023|
|         414|   -6.873241|   -9.999915|    0.823999|    0.012023|
|         415|   -6.876630|  -10.001490|    0.823999|    0.012023|
|         416|   -6.880945|  -10.003197|    0.823999|    0.012023|
|         417|   -6.890565|  -10.004877|    0.823999|    0.012023|
|         418|   -6.906465|  -10.006568|    0.823999|    0.012023|
|         419|   -6.926792|  -10.008411|    0.823999|    0.012023|
|         420|   -6.948352|  -10.010713|    0.823999|    0.012023|
|         421|   -6.968450|  -10.013677|    0.823999|    0.012023|
|         422|   -6.986202|  -10.017332|    0.823999|    0.012023|
|         423|   -7.002465|  -10.021569|    0.823999|    0.012023|
|         424|   -7.018678|  -10.026190|    0.823999|    0.012023|
|         425|   -7.035745|  -10.030987|    0.823999|    0.012023|
|         426|   -7.053662|  -10.035794|    0.823999|    0.012023|
|         427|   -7.071739|  -10.040501|    0.823999|    0.012023|
|         428|   -7.089020|  -10.045052|    0.823999|    0.012023|
|         429|   -7.104617|  -10.049427|    0.823999|    0.012023|
|         430|   -7.117892|  -10.053642|    0.823999|    0.012023|
|         431|   -7.128579|  -10.057732|    0.823999|    0.012023|
|         432|   -7.136879|  -10.061748|    0.823999|    0.012023|
|         433|   -7.143469|  -10.065733|    0.823999|    0.012023|
|         434|   -7.149358|  -10.069711|    0.823999|    0.012023|
|         435|   -7.155631|  -10.073680|    0.823999|    0.012023|
|         436|   -7.163204|  -10.077601|    0.823999|    0.012023|
|         437|   -7.172662|  -10.081410|    0.823999|    0.012023|
|         438|   -7.184188|  -10.085017|    0.823999|    0.012023|
|         439|   -7.197559|  -10.088321|    0.823999|    0.012023|
|         440|   -7.212180|  -10.091218|    0.823999|    0.012023|
|         441|   -7.227162|  -10.093614|    0.823999|    0.012023|
|         442|   -7.241487|  -10.095436|    0.823999|    0.012023|
|         443|   -7.254250|  -10.096635|    0.823999|    0.012023|
|         444|   -7.264926|  -10.097189|    0.823999|    0.012023|
|         445|   -7.273541|  -10.097097|    0.823999|    0.012023|
|         446|   -7.280653|  -10.096375|    0.823999|    0.012023|
|         447|   -7.287146|  -10.095043|    0.823999|    0.012023|
|         448|   -7.293957|  -10.093128|    0.823999|    0.012023|
|         449|   -7.301847|  -10.090659|    0.823999|    0.012023|
|         450|   -7.311268|  -10.087671|    0.823999|    0.012023|
|         451|   -7.322333|  -10.084210|    0.823999|    0.012023|
|         452|   -7.334848|  -10.080331|    0.823999|    0.012023|
|         453|   -7.348398|  -10.076105|    0.823999|    0.012023|
|         454|   -7.362447|  -10.071625|    0.823999|    0.012023|
|         455|   -7.376463|  -10.067002|    0.823999|    0.012023|
|         456|   -7.390023|  -10.062366|    0.823999|    0.012023|
|         457|   -7.402887|  -10.057854|    0.823999|    0.012023|
|         458|   -7.415020|  -10.053612|    0.823999|    0.012023|
|         459|   -7.426564|  -10.049793|    0.823999|    0.012023|
|         460|   -7.437764|  -10.046547|    0.824000|    0.012023|
|         461|   -7.448898|  -10.044022|    0.824000|    0.012023|
|         462|   -7.460205|  -10.042363|    0.824000|    0.012023|
|         463|   -7.471852|  -10.041705|    0.824000|    0.012023|
|         464|   -7.483926|  -10.042175|    0.824000|    0.012023|
|         465|   -7.496440|  -10.043890|    0.824000|    0.012023|
|         466|   -7.509360|  -10.046957|    0.824000|    0.012023|
|         467|   -7.522629|  -10.051467|    0.824000|    0.012023|
|         468|   -7.536187|  -10.057494|    0.824000|    0.012023|
|         469|   -7.549984|  -10.065090|    0.824000|    0.012023|
|         470|   -7.563988|  -10.074280|    0.824000|    0.012023|
|         471|   -7.578173|  -10.085049|    0.824000|    0.012023|
|         472|   -7.592515|  -10.097332|    0.824000|    0.012023|
|         473|   -7.606983|  -10.110997|    0.824000|    0.012023|
|         474|   -7.621528|  -10.125823|    0.824000|    0.012023|
|         475|   -7.636080|  -10.141475|    0.824000|    0.012023|
|         476|   -7.650550|  -10.157480|    0.824000|    0.012023|
|         477|   -7.664828|  -10.173207|    0.824000|    0.012023|
|         478|   -7.678798|  -10.187868|    0.824000|    0.012023|
|         479|   -7.692335|  -10.200555|    0.824000|    0.012023|
|         480|   -7.705323|  -10.210327|    0.824000|    0.012023|
|         481|   -7.717654|  -10.216343|    0.824000|    0.012023|
|         482|   -7.729239|  -10.218032|    0.824000|    0.012023|
|         483|   -7.740010|  -10.215224|    0.824000|    0.012023|
|         484|   -7.749924|  -10.208194|    0.824000|    0.012023|
|         485|   -7.758964|  -10.197601|    0.824000|    0.012023|
|         486|   -7.767143|  -10.184344|    0.824000|    0.012023|
|         487|   -7.774498|  -10.169402|    0.824000|    0.012023|
|         488|   -7.781091|  -10.153704|    0.824000|    0.012023|
|         489|   -7.787005|  -10.138050|    0.824000|    0.012023|
|         490|   -7.792336|  -10.123086|    0.824000|    0.012023|
|         491|   -7.797192|  -10.109307|    0.824000|    0.012023|
|         492|   -7.801682|  -10.097080|    0.824000|    0.012023|
|         493|   -7.805916|  -10.086667|    0.824000|    0.012023|
|         494|   -7.809996|  -10.078252|    0.824000|    0.012023|
|         495|   -7.814014|  -10.071959|    0.824000|    0.012023|
|         496|   -7.818050|  -10.067873|    0.824000|    0.012023|
|         497|   -7.822169|  -10.066048|    0.824000|    0.012023|
|         498|   -7.826423|  -10.066518|    0.824000|    0.012023|
|         499|   -7.830847|  -10.069301|    0.824000|    0.012023|
|         500|   -7.835460|  -10.074401|    0.824000|    0.012023|
|         501|   -7.840272|  -10.081813|    0.824000|    0.012023|
|         502|   -7.845277|  -10.091517|    0.824000|    0.012023|
|         503|   -7.850460|  -10.103474|    0.824000|    0.012023|
|         504|   -7.855796|  -10.117623|    0.824000|    0.012023|
|         505|   -7.861254|  -10.133864|    0.824000|    0.012023|
|         506|   -7.866796|  -10.152047|    0.824000|    0.012023|
|         507|   -7.872381|  -10.171948|    0.824000|    0.012023|
|         508|   -7.877970|  -10.193242|    0.824000|    0.012023|
|         509|   -7.883521|  -10.215472|    0.824000|    0.012023|
|         510|   -7.888997|  -10.238014|    0.824000|    0.012023|
|         511|   -7.894368|  -10.260054|    0.824000|    0.012023|
|         512|   -7.899608|  -10.280591|    0.824000|    0.012023|
|         513|   -7.904703|  -10.298493|    0.824000|    0.012023|
|         514|   -7.909647|  -10.312623|    0.824000|    0.012023|
|         515|   -7.914445|  -10.322031|    0.824000|    0.012023|
|         516|   -7.919113|  -10.326163|    0.824000|    0.012023|
|         517|   -7.923674|  -10.324999|    0.824000|    0.012023|
|         518|   -7.928163|  -10.319049|    0.824000|    0.012023|
|         519|   -7.932620|  -10.309219|    0.824000|    0.012023|
|         520|   -7.937091|  -10.296601|    0.824000|    0.012023|
|         521|   -7.941624|  -10.282278|    0.824000|    0.012023|
|         522|   -7.946268|  -10.267202|    0.824000|    0.012023|
|         523|   -7.951073|  -10.252135|    0.824000|    0.012023|
|         524|   -7.956085|  -10.237645|    0.824000|    0.012023|
|         525|   -7.961343|  -10.224133|    0.824000|    0.012023|
|         526|   -7.966884|  -10.211863|    0.824000|    0.012023|
|         527|   -7.972737|  -10.200993|    0.824000|    0.012023|
|         528|   -7.978922|  -10.191603|    0.824000|    0.012023|
|         529|   -7.985452|  -10.183717|    0.824000|    0.012023|
|         530|   -7.992328|  -10.177314|    0.824000|    0.012023|
|         531|   -7.999546|  -10.172343|    0.824000|    0.012023|
|         532|   -8.007087|  -10.168728|    0.824000|    0.012023|
|         533|   -8.014926|  -10.166373|    0.824000|    0.012023|
|         534|   -8.023023|  -10.165164|    0.824000|    0.012023|
|         535|   -8.031329|  -10.164975|    0.824000|    0.012023|
|         536|   -8.039785|  -10.165665|    0.824000|    0.012023|
|         537|   -8.048318|  -10.167083|    0.824000|    0.012023|
|         538|   -8.056846|  -10.169069|    0.824000|    0.012023|
|         539|   -8.065279|  -10.171457|    0.824000|    0.012023|
|         540|   -8.073518|  -10.174078|    0.824000|    0.012023|
|         541|   -8.081460|  -10.176770|    0.824000|    0.012023|
|         542|   -8.088999|  -10.179376|    0.824000|    0.012023|
|         543|   -8.096033|  -10.181756|    0.824000|    0.012023|
|         544|   -8.102468|  -10.183794|    0.824000|    0.012023|
|         545|   -8.108221|  -10.185399|    0.824000|    0.012023|
|         546|   -8.113228|  -10.186513|    0.824000|    0.012023|
|         547|   -8.117446|  -10.187113|    0.824000|    0.012023|
|         548|   -8.120857|  -10.187207|    0.824000|    0.012023|
|         549|   -8.123470|  -10.186835|    0.824000|    0.012023|
|         550|   -8.125320|  -10.186060|    0.824000|    0.012023|
|         551|   -8.126467|  -10.184964|    0.824000|    0.012023|
|         552|   -8.126992|  -10.183638|    0.824000|    0.012023|
|         553|   -8.126992|  -10.182178|    0.824000|    0.012023|
|         554|   -8.126574|  -10.180674|    0.824000|    0.012023|
|         555|   -8.125853|  -10.179206|    0.824000|    0.012023|
|         556|   -8.124944|  -10.177839|    0.824000|    0.012023|
|         557|   -8.123960|  -10.176620|    0.824000|    0.012023|
|         558|   -8.123006|  -10.175576|    0.824000|    0.012023|
|         559|   -8.122179|  -10.174713|    0.824000|    0.012023|
|         560|   -8.121565|  -10.174017|    0.824000|    0.012023|
|         561|   -8.121238|  -10.173457|    0.824000|    0.012023|
|         562|   -8.121261|  -10.172983|    0.824000|    0.012023|
|         563|   -8.121682|  -10.172536|    0.824000|    0.012023|
|         564|   -8.122539|  -10.172047|    0.824000|    0.012023|
|         565|   -8.123858|  -10.171448|    0.824000|    0.012023|
|         566|   -8.125653|  -10.170670|    0.824000|    0.012023|
|         567|   -8.127926|  -10.169656|    0.824000|    0.012023|
|         568|   -8.130672|  -10.168361|    0.824000|    0.012023|
|         569|   -8.133871|  -10.166760|    0.824000|    0.012023|
|         570|   -8.137496|  -10.164848|    0.824000|    0.012023|
|         571|   -8.141511|  -10.162642|    0.824000|    0.012023|
|         572|   -8.145870|  -10.160183|    0.824000|    0.012023|
|         573|   -8.150516|  -10.157530|    0.824000|    0.012023|
|         574|   -8.155387|  -10.154757|    0.824000|    0.012023|
|         575|   -8.160413|  -10.151954|    0.824000|    0.012023|
|         576|   -8.165516|  -10.149212|    0.824000|    0.012023|
|         577|   -8.170616|  -10.146628|    0.824000|    0.012023|
|         578|   -8.175626|  -10.144294|    0.824000|    0.012023|
|         579|   -8.180463|  -10.142294|    0.824000|    0.012023|
|         580|   -8.185042|  -10.140704|    0.824000|    0.012023|
|         581|   -8.189282|  -10.139583|    0.824000|    0.012023|
|         582|   -8.193113|  -10.138979|    0.824000|    0.012023|
|         583|   -8.196473|  -10.138918|    0.824000|    0.012023|
|         584|   -8.199315|  -10.139414|    0.824000|    0.012023|
|         585|   -8.201605|  -10.140459|    0.824000|    0.012023|
|         586|   -8.203328|  -10.142030|    0.824000|    0.012023|
|         587|   -8.204488|  -10.144084|    0.824000|    0.012023|
|         588|   -8.205103|  -10.146565|    0.824000|    0.012023|
|         589|   -8.205210|  -10.149401|    0.824000|    0.012023|
|         590|   -8.204859|  -10.152508|    0.824000|    0.012023|
|         591|   -8.204114|  -10.155791|    0.824000|    0.012023|
|         592|   -8.203047|  -10.159153|    0.824000|    0.012023|
|         593|   -8.201734|  -10.162492|    0.824000|    0.012023|
|         594|   -8.200256|  -10.165710|    0.824000|    0.012023|
|         595|   -8.198695|  -10.168716|    0.824000|    0.012023|
|         596|   -8.197130|  -10.171434|    0.824000|    0.012023|
|         597|   -8.195636|  -10.173801|    0.824000|    0.012023|
|         598|   -8.194284|  -10.175774|    0.824000|    0.012023|
|         599|   -8.193137|  -10.177330|    0.824000|    0.012023|
|         600|   -8.192253|  -10.178469|    0.824000|    0.012023|
|         601|   -8.191682|  -10.179208|    0.824000|    0.012023|
|         602|   -8.191464|  -10.179579|    0.824000|    0.012023|
|         603|   -8.191636|  -10.179631|    0.824000|    0.012023|
|         604|   -8.192224|  -10.179416|    0.824000|    0.012023|
|         605|   -8.193247|  -10.178994|    0.824000|    0.012023|
|         606|   -8.194718|  -10.178421|    0.824000|    0.012023|
|         607|   -8.196644|  -10.177752|    0.824000|    0.012023|
|         608|   -8.199024|  -10.177034|    0.824000|    0.012023|
|         609|   -8.201849|  -10.176306|    0.824000|    0.012023|
|         610|   -8.205107|  -10.175595|    0.824000|    0.012023|
|         611|   -8.208778|  -10.174923|    0.824000|    0.012023|
|         612|   -8.212836|  -10.174297|    0.824000|    0.012023|
|         613|   -8.217250|  -10.173721|    0.824000|    0.012023|
|         614|   -8.221983|  -10.173189|    0.824000|    0.012023|
|         615|   -8.226993|  -10.172692|    0.824000|    0.012023|
|         616|   -8.232233|  -10.172218|    0.824000|    0.012023|
|         617|   -8.237655|  -10.171755|    0.824000|    0.012023|
|         618|   -8.243203|  -10.171290|    0.824000|    0.012023|
|         619|   -8.248821|  -10.170814|    0.824000|    0.012023|
|         620|   -8.254453|  -10.170322|    0.824000|    0.012023|
|         621|   -8.260039|  -10.169813|    0.824000|    0.012023|
|         622|   -8.265524|  -10.169291|    0.824000|    0.012023|
|         623|   -8.270855|  -10.168765|    0.824000|    0.012023|
|         624|   -8.275982|  -10.168248|    0.824000|    0.012023|
|         625|   -8.280863|  -10.167756|    0.824000|    0.012023|
|         626|   -8.285460|  -10.167309|    0.824000|    0.012023|
|         627|   -8.289746|  -10.166928|    0.824000|    0.012023|
|         628|   -8.293703|  -10.166632|    0.824000|    0.012023|
|         629|   -8.297321|  -10.166441|    0.824000|    0.012023|
|         630|   -8.300601|  -10.166372|    0.824000|    0.012023|
|         631|   -8.303553|  -10.166442|    0.824000|    0.012023|
|         632|   -8.306195|  -10.166661|    0.824000|    0.012023|
|         633|   -8.308552|  -10.167036|    0.824000|    0.012023|
|         634|   -8.310655|  -10.167574|    0.824000|    0.012023|
|         635|   -8.312541|  -10.168274|    0.824000|    0.012023|
|         636|   -8.314247|  -10.169133|    0.824000|    0.012023|
|         637|   -8.315812|  -10.170147|    0.824000|    0.012023|
|         638|   -8.317277|  -10.171307|    0.824000|    0.012023|
|         639|   -8.318677|  -10.172604|    0.824000|    0.012023|
|         640|   -8.320048|  -10.174027|    0.824000|    0.012023|
|         641|   -8.321419|  -10.175566|    0.824000|    0.012023|
|         642|   -8.322816|  -10.177211|    0.824000|    0.012023|
|         643|   -8.324261|  -10.178952|    0.824000|    0.012023|
|         644|   -8.325767|  -10.180781|    0.824000|    0.012023|
|         645|   -8.327346|  -10.182692|    0.824000|    0.012023|
|         646|   -8.329002|  -10.184681|    0.824000|    0.012023|
|         647|   -8.330734|  -10.186747|    0.824000|    0.012023|
|         648|   -8.332537|  -10.188891|    0.824000|    0.012023|
|         649|   -8.334403|  -10.191117|    0.824000|    0.012023|
|         650|   -8.336320|  -10.193431|    0.824000|    0.012023|
|         651|   -8.338273|  -10.195841|    0.824000|    0.012023|
|         652|   -8.340247|  -10.198357|    0.824000|    0.012023|
|         653|   -8.342225|  -10.200992|    0.824000|    0.012023|
|         654|   -8.344193|  -10.203760|    0.824000|    0.012023|
|         655|   -8.346136|  -10.206675|    0.824000|    0.012023|
|         656|   -8.348043|  -10.209755|    0.824000|    0.012023|
|         657|   -8.349906|  -10.213016|    0.824000|    0.012023|
|         658|   -8.351720|  -10.216475|    0.824000|    0.012023|
|         659|   -8.353486|  -10.220151|    0.824000|    0.012023|
|         660|   -8.355209|  -10.224060|    0.824000|    0.012023|
|         661|   -8.356897|  -10.228221|    0.824000|    0.012023|
|         662|   -8.358567|  -10.232648|    0.824000|    0.012023|
|         663|   -8.360234|  -10.237357|    0.824000|    0.012023|
|         664|   -8.361923|  -10.242362|    0.824000|    0.012023|
|         665|   -8.363658|  -10.247675|    0.824000|    0.012023|
|         666|   -8.365466|  -10.253305|    0.824000|    0.012023|
|         667|   -8.367376|  -10.259260|    0.824000|    0.012023|
|         668|   -8.369417|  -10.265543|    0.824000|    0.012023|
|         669|   -8.371617|  -10.272155|    0.824000|    0.012023|
|         670|   -8.374004|  -10.279092|    0.824000|    0.012023|
|         671|   -8.376602|  -10.286348|    0.824000|    0.012023|
|         672|   -8.379432|  -10.293910|    0.824000|    0.012023|
|         673|   -8.382515|  -10.301762|    0.824000|    0.012023|
|         674|   -8.385862|  -10.309884|    0.824000|    0.012023|
|         675|   -8.389484|  -10.318249|    0.824000|    0.012023|
|         676|   -8.393385|  -10.326827|    0.824000|    0.012023|
|         677|   -8.397564|  -10.335582|    0.824000|    0.012023|
|         678|   -8.402016|  -10.344476|    0.824000|    0.012023|
|         679|   -8.406729|  -10.353466|    0.824000|    0.012023|
|         680|   -8.411683|  -10.362506|    0.824000|    0.012023|
|         681|   -8.416860|  -10.371551|    0.824000|    0.012023|
|         682|   -8.422231|  -10.380553|    0.824000|    0.012023|
|         683|   -8.427764|  -10.389465|    0.824000|    0.012023|
|         684|   -8.433424|  -10.398243|    0.824000|    0.012023|
|         685|   -8.439172|  -10.406846|    0.824000|    0.012023|
|         686|   -8.444968|  -10.415239|    0.824000|    0.012023|
|         687|   -8.450769|  -10.423389|    0.824000|    0.012023|
|         688|   -8.456535|  -10.431275|    0.824000|    0.012023|
|         689|   -8.462223|  -10.438879|    0.824000|    0.012023|
|         690|   -8.467795|  -10.446193|    0.824000|    0.012023|
|         691|   -8.473217|  -10.453214|    0.824000|    0.012023|
|         692|   -8.478459|  -10.459947|    0.824000|    0.012023|
|         693|   -8.483494|  -10.466404|    0.824000|    0.012023|
|         694|   -8.488303|  -10.472598|    0.824000|    0.012023|
|         695|   -8.492875|  -10.478550|    0.824000|    0.012023|
|         696|   -8.497203|  -10.484280|    0.824000|    0.012023|
|         697|   -8.501286|  -10.489812|    0.824000|    0.012023|
|         698|   -8.505131|  -10.495167|    0.824000|    0.012023|
|         699|   -8.508747|  -10.500367|    0.824000|    0.012023|
|         700|   -8.512148|  -10.505432|    0.824000|    0.012023|
|         701|   -8.515351|  -10.510378|    0.824000|    0.012023|
|         702|   -8.518375|  -10.515223|    0.824000|    0.012023|
|         703|   -8.521238|  -10.519977|    0.824000|    0.012023|
|         704|   -8.523957|  -10.524651|    0.824000|    0.012023|
|         705|   -8.526549|  -10.529255|    0.824000|    0.012023|
|         706|   -8.529026|  -10.533794|    0.824000|    0.012023|
|         707|   -8.531400|  -10.538275|    0.824000|    0.012023|
|         708|   -8.533678|  -10.542704|    0.824000|    0.012023|
|         709|   -8.535862|  -10.547085|    0.824000|    0.012023|
|         710|   -8.537953|  -10.551425|    0.824000|    0.012023|
|         711|   -8.539947|  -10.555731|    0.824000|    0.012023|
|         712|   -8.541836|  -10.560011|    0.824000|    0.012023|
|         713|   -8.543612|  -10.564274|    0.824000|    0.012023|
|         714|   -8.545264|  -10.568530|    0.824000|    0.012023|
|         715|   -8.546777|  -10.572791|    0.824000|    0.012023|
|         716|   -8.548139|  -10.577070|    0.824000|    0.012023|
|         717|   -8.549336|  -10.581377|    0.824000|    0.012023|
|         718|   -8.550355|  -10.585728|    0.824000|    0.012023|
|         719|   -8.551184|  -10.590132|    0.824000|    0.012023|
|         720|   -8.551814|  -10.594601|    0.824000|    0.012023|
|         721|   -8.552236|  -10.599146|    0.824000|    0.012023|
|         722|   -8.552444|  -10.603774|    0.824000|    0.012023|
|         723|   -8.552434|  -10.608490|    0.824000|    0.012023|
|         724|   -8.552206|  -10.613300|    0.824000|    0.012023|
|         725|   -8.551761|  -10.618202|    0.824000|    0.012023|
|         726|   -8.551100|  -10.623197|    0.824000|    0.012023|
|         727|   -8.550228|  -10.628280|    0.824000|    0.012023|
|         728|   -8.549151|  -10.633445|    0.824000|    0.012023|
|         729|   -8.547877|  -10.638683|    0.824000|    0.012023|
|         730|   -8.546410|  -10.643984|    0.824000|    0.012023|
|         731|   -8.544760|  -10.649336|    0.824000|    0.012023|
|         732|   -8.542934|  -10.654726|    0.824000|    0.012023|
|         733|   -8.540938|  -10.660140|    0.824000|    0.012023|
|         734|   -8.538780|  -10.665564|    0.824000|    0.012023|
|         735|   -8.536466|  -10.670985|    0.824000|    0.012023|
|         736|   -8.534004|  -10.676390|    0.824000|    0.012023|
|         737|   -8.531398|  -10.681767|    0.824000|    0.012023|
|         738|   -8.528655|  -10.687105|    0.824000|    0.012023|
|         739|   -8.525782|  -10.692395|    0.824000|    0.012023|
|         740|   -8.522783|  -10.697629|    0.824000|    0.012023|
|         741|   -8.519667|  -10.702804|    0.824000|    0.012023|
|         742|   -8.516441|  -10.707914|    0.824000|    0.012023|
|         743|   -8.513113|  -10.712959|    0.824000|    0.012023|
|         744|   -8.509693|  -10.717938|    0.824000|    0.012023|
|         745|   -8.506192|  -10.722852|    0.824000|    0.012023|
|         746|   -8.502623|  -10.727703|    0.824000|    0.012023|
|         747|   -8.498997|  -10.732495|    0.824000|    0.012023|
|         748|   -8.495330|  -10.737231|    0.824000|    0.012023|
|         749|   -8.491638|  -10.741913|    0.824000|    0.012023|
|         750|   -8.487936|  -10.746546|    0.824000|    0.012023|
|         751|   -8.484244|  -10.751131|    0.824000|    0.012023|
|         752|   -8.480578|  -10.755672|    0.824000|    0.012023|
|         753|   -8.476957|  -10.760167|    0.824000|    0.012023|
|         754|   -8.473400|  -10.764617|    0.824000|    0.012023|
|         755|   -8.469925|  -10.769019|    0.824000|    0.012023|
|         756|   -8.466550|  -10.773370|    0.824000|    0.012023|
|         757|   -8.463292|  -10.777666|    0.824000|    0.012023|
|         758|   -8.460168|  -10.781900|    0.824000|    0.012023|
|         759|   -8.457194|  -10.786064|    0.824000|    0.012023|
|         760|   -8.454382|  -10.790149|    0.824000|    0.012023|
|         761|   -8.451745|  -10.794147|    0.824000|    0.012023|
|         762|   -8.449294|  -10.798046|    0.824000|    0.012023|
|         763|   -8.447038|  -10.801835|    0.824000|    0.012023|
|         764|   -8.444984|  -10.805505|    0.824000|    0.012023|
|         765|   -8.443137|  -10.809043|    0.824000|    0.012023|
|         766|   -8.441502|  -10.812441|    0.824000|    0.012023|
|         767|   -8.440077|  -10.815690|    0.824000|    0.012023|
|         768|   -8.438865|  -10.818783|    0.824000|    0.012023|
|         769|   -8.437862|  -10.821713|    0.824000|    0.012023|
|         770|   -8.437065|  -10.824478|    0.824000|    0.012023|
|         771|   -8.436467|  -10.827077|    0.824000|    0.012023|
|         772|   -8.436062|  -10.829511|    0.824000|    0.012023|
|         773|   -8.435840|  -10.831787|    0.824000|    0.012023|
|         774|   -8.435793|  -10.833910|    0.824000|    0.012023|
|         775|   -8.435909|  -10.835893|    0.824000|    0.012023|
|         776|   -8.436176|  -10.837748|    0.824000|    0.012023|
|         777|   -8.436583|  -10.839492|    0.824000|    0.012023|
|         778|   -8.437114|  -10.841143|    0.824000|    0.012023|
|         779|   -8.437759|  -10.842723|    0.824000|    0.012023|
|         780|   -8.438501|  -10.844254|    0.824000|    0.012023|
|         781|   -8.439329|  -10.845760|    0.824000|    0.012023|
|         782|   -8.440226|  -10.847267|    0.824000|    0.012023|
|         783|   -8.441182|  -10.848798|    0.824000|    0.012023|
|         784|   -8.442180|  -10.850380|    0.824000|    0.012023|
|         785|   -8.443208|  -10.852036|    0.824000|    0.012023|
|         786|   -8.444254|  -10.853790|    0.824000|    0.012023|
|         787|   -8.445305|  -10.855663|    0.824000|    0.012023|
|         788|   -8.446349|  -10.857676|    0.824000|    0.012023|
|         789|   -8.447374|  -10.859846|    0.824000|    0.012023|
|         790|   -8.448369|  -10.862186|    0.824000|    0.012023|
|         791|   -8.449323|  -10.864708|    0.824000|    0.012023|
|         792|   -8.450225|  -10.867422|    0.824000|    0.012023|
|         793|   -8.451064|  -10.870330|    0.824000|    0.012023|
|         794|   -8.451829|  -10.873434|    0.824000|    0.012023|
|         795|   -8.452511|  -10.876731|    0.824000|    0.012023|
|         796|   -8.453100|  -10.880215|    0.824000|    0.012023|
|         797|   -8.453585|  -10.883874|    0.824000|    0.012023|
|         798|   -8.453957|  -10.887695|    0.824000|    0.012023|
|         799|   -8.454205|  -10.891660|    0.824000|    0.012023|
|         800|   -8.454322|  -10.895747|    0.824000|    0.012023|
|         801|   -8.454297|  -10.899932|    0.824000|    0.012023|
|         802|   -8.454122|  -10.904188|    0.824000|    0.012023|
|         803|   -8.453790|  -10.908486|    0.824000|    0.012023|
|         804|   -8.453294|  -10.912796|    0.824000|    0.012023|
|         805|   -8.452628|  -10.917084|    0.824000|    0.012023|
|         806|   -8.451787|  -10.921319|    0.824000|    0.012023|
|         807|   -8.450768|  -10.925470|    0.824000|    0.012023|
|         808|   -8.449571|  -10.929503|    0.824000|    0.012023|
|         809|   -8.448195|  -10.933391|    0.824000|    0.012023|
|         810|   -8.446642|  -10.937106|    0.824000|    0.012023|
|         811|   -8.444916|  -10.940625|    0.824000|    0.012023|
|         812|   -8.443024|  -10.943925|    0.824000|    0.012023|
|         813|   -8.440973|  -10.946991|    0.824000|    0.012023|
|         814|   -8.438774|  -10.949810|    0.824000|    0.012023|
|         815|   -8.436438|  -10.952374|    0.824000|    0.012023|
|         816|   -8.433981|  -10.954677|    0.824000|    0.012023|
|         817|   -8.431418|  -10.956721|    0.824000|    0.012023|
|         818|   -8.428767|  -10.958508|    0.824000|    0.012023|
|         819|   -8.426047|  -10.960046|    0.824000|    0.012023|
|         820|   -8.423278|  -10.961344|    0.824000|    0.012023|
|         821|   -8.420482|  -10.962415|    0.824000|    0.012023|
|         822|   -8.417681|  -10.963274|    0.824000|    0.012023|
|         823|   -8.414898|  -10.963936|    0.824000|    0.012023|
|         824|   -8.412157|  -10.964419|    0.824000|    0.012023|
|         825|   -8.409481|  -10.964740|    0.824000|    0.012023|
|         826|   -8.406894|  -10.964917|    0.824000|    0.012023|
|         827|   -8.404419|  -10.964969|    0.824000|    0.012023|
|         828|   -8.402080|  -10.964914|    0.824000|    0.012023|
|         829|   -8.399900|  -10.964769|    0.824000|    0.012023|
|         830|   -8.397900|  -10.964551|    0.824000|    0.012023|
|         831|   -8.396102|  -10.964279|    0.824000|    0.012023|
|         832|   -8.394525|  -10.963967|    0.824000|    0.012023|
|         833|   -8.393190|  -10.963633|    0.824000|    0.012023|
|         834|   -8.392113|  -10.963291|    0.824000|    0.012023|
|         835|   -8.391314|  -10.962956|    0.824000|    0.012023|
|         836|   -8.390806|  -10.962643|    0.824000|    0.012023|
|         837|   -8.390605|  -10.962366|    0.824000|    0.012023|
|         838|   -8.390724|  -10.962140|    0.824000|    0.012023|
|         839|   -8.391173|  -10.961978|    0.824000|    0.012023|
|         840|   -8.391962|  -10.961892|    0.824000|    0.012023|
|         841|   -8.393101|  -10.961897|    0.824000|    0.012023|
|         842|   -8.394594|  -10.962005|    0.824000|    0.012023|
|         843|   -8.396448|  -10.962229|    0.824000|    0.012023|
|         844|   -8.398663|  -10.962581|    0.824000|    0.012023|
|         845|   -8.401242|  -10.963073|    0.824000|    0.012023|
|         846|   -8.404181|  -10.963717|    0.824000|    0.012023|
|         847|   -8.407477|  -10.964524|    0.824000|    0.012023|
|         848|   -8.411125|  -10.965507|    0.824000|    0.012023|
|         849|   -8.415114|  -10.966676|    0.824000|    0.012023|
|         850|   -8.419433|  -10.968042|    0.824000|    0.012023|
|         851|   -8.424066|  -10.969615|    0.824000|    0.012023|
|         852|   -8.428995|  -10.971407|    0.824000|    0.012023|
|         853|   -8.434199|  -10.973428|    0.824000|    0.012023|
|         854|   -8.439653|  -10.975688|    0.824000|    0.012023|
|         855|   -8.445328|  -10.978196|    0.824000|    0.012023|
|         856|   -8.451192|  -10.980964|    0.824000|    0.012023|
|         857|   -8.457208|  -10.983999|    0.824000|    0.012023|
|         858|   -8.463337|  -10.987313|    0.824000|    0.012023|
|         859|   -8.469534|  -10.990914|    0.824000|    0.012023|
|         860|   -8.475752|  -10.994811|    0.824000|    0.012023|
|         861|   -8.481942|  -10.999014|    0.824000|    0.012023|
|         862|   -8.488049|  -11.003530|    0.824000|    0.012023|
|         863|   -8.494022|  -11.008368|    0.824000|    0.012023|
|         864|   -8.499803|  -11.013536|    0.824000|    0.012023|
|         865|   -8.505339|  -11.019040|    0.824000|    0.012023|
|         866|   -8.510574|  -11.024888|    0.824000|    0.012023|
|         867|   -8.515459|  -11.031084|    0.824000|    0.012023|
|         868|   -8.519947|  -11.037635|    0.824000|    0.012023|
|         869|   -8.523997|  -11.044543|    0.824000|    0.012023|
|         870|   -8.527574|  -11.051811|    0.824000|    0.012023|
|         871|   -8.530654|  -11.059441|    0.824000|    0.012023|
|         872|   -8.533218|  -11.067430|    0.824000|    0.012023|
|         873|   -8.535259|  -11.075777|    0.824000|    0.012023|
|         874|   -8.536778|  -11.084477|    0.824000|    0.012023|
|         875|   -8.537788|  -11.093520|    0.824000|    0.012023|
|         876|   -8.538309|  -11.102897|    0.824000|    0.012023|
|         877|   -8.538369|  -11.112593|    0.824000|    0.012023|
|         878|   -8.538003|  -11.122588|    0.824000|    0.012023|
|         879|   -8.537254|  -11.132861|    0.824000|    0.012023|
|         880|   -8.536166|  -11.143382|    0.824000|    0.012023|
|         881|   -8.534790|  -11.154118|    0.824000|    0.012023|
|         882|   -8.533173|  -11.165028|    0.824000|    0.012023|
|         883|   -8.531368|  -11.176068|    0.824000|    0.012023|
|         884|   -8.529426|  -11.187183|    0.824000|    0.012023|
|         885|   -8.527393|  -11.198313|    0.824000|    0.012023|
|         886|   -8.525318|  -11.209391|    0.824000|    0.012023|
|         887|   -8.523244|  -11.220343|    0.824000|    0.012023|
|         888|   -8.521213|  -11.231090|    0.824000|    0.012023|
|         889|   -8.519261|  -11.241545|    0.824000|    0.012023|
|         890|   -8.517423|  -11.251623|    0.824000|    0.012023|
|         891|   -8.515731|  -11.261232|    0.824000|    0.012023|
|         892|   -8.514211|  -11.270285|    0.824000|    0.012023|
|         893|   -8.512890|  -11.278698|    0.824000|    0.012023|
|         894|   -8.511787|  -11.286395|    0.824000|    0.012023|
|         895|   -8.510924|  -11.293310|    0.824000|    0.012023|
|         896|   -8.510315|  -11.299394|    0.824000|    0.012023|
|         897|   -8.509975|  -11.304609|    0.824000|    0.012023|
|         898|   -8.509916|  -11.308941|    0.824000|    0.012023|
|         899|   -8.510150|  -11.312390|    0.824000|    0.012023|
|         900|   -8.510683|  -11.314978|    0.824000|    0.012023|
|         901|   -8.511523|  -11.316744|    0.824000|    0.012023|
|         902|   -8.512676|  -11.317742|    0.824000|    0.012023|
|         903|   -8.514146|  -11.318038|    0.824000|    0.012023|
|         904|   -8.515936|  -11.317710|    0.824000|    0.012023|
|         905|   -8.518049|  -11.316841|    0.824000|    0.012023|
|         906|   -8.520485|  -11.315516|    0.824000|    0.012023|
|         907|   -8.523246|  -11.313822|    0.824000|    0.012023|
|         908|   -8.526331|  -11.311842|    0.824000|    0.012023|
|         909|   -8.529738|  -11.309658|    0.824000|    0.012023|
|         910|   -8.533464|  -11.307343|    0.824000|    0.012023|
|         911|   -8.537508|  -11.304966|    0.824000|    0.012023|
|         912|   -8.541863|  -11.302589|    0.824000|    0.012023|
|         913|   -8.546525|  -11.300265|    0.824000|    0.012023|
|         914|   -8.551487|  -11.298042|    0.824000|    0.012023|
|         915|   -8.556740|  -11.295960|    0.824000|    0.012023|
|         916|   -8.562275|  -11.294054|    0.824000|    0.012023|
|         917|   -8.568079|  -11.292350|    0.824000|    0.012023|
|         918|   -8.574140|  -11.290872|    0.824000|    0.012023|
|         919|   -8.580441|  -11.289637|    0.824000|    0.012023|
|         920|   -8.586965|  -11.288659|    0.824000|    0.012023|
|         921|   -8.593689|  -11.287946|    0.824000|    0.012023|
|         922|   -8.600590|  -11.287503|    0.824000|    0.012023|
|         923|   -8.607640|  -11.287334|    0.824000|    0.012023|
|         924|   -8.614809|  -11.287437|    0.824000|    0.012023|
|         925|   -8.622064|  -11.287810|    0.824000|    0.012023|
|         926|   -8.629365|  -11.288447|    0.824000|    0.012023|
|         927|   -8.636672|  -11.289341|    0.824000|    0.012023|
|         928|   -8.643939|  -11.290484|    0.824000|    0.012023|
|         929|   -8.651120|  -11.291865|    0.824000|    0.012023|
|         930|   -8.658165|  -11.293471|    0.824000|    0.012023|
|         931|   -8.665019|  -11.295290|    0.824000|    0.012023|
|         932|   -8.671631|  -11.297307|    0.824000|    0.012023|
|         933|   -8.677946|  -11.299505|    0.824000|    0.012023|
|         934|   -8.683913|  -11.301868|    0.824000|    0.012023|
|         935|   -8.689481|  -11.304378|    0.824000|    0.012023|
|         936|   -8.694604|  -11.307016|    0.824000|    0.012023|
|         937|   -8.699244|  -11.309762|    0.824000|    0.012023|
|         938|   -8.703367|  -11.312594|    0.824000|    0.012023|
|         939|   -8.706948|  -11.315491|    0.824000|    0.012023|
|         940|   -8.709973|  -11.318432|    0.824000|    0.012023|
|         941|   -8.712437|  -11.321393|    0.824000|    0.012023|
|         942|   -8.714344|  -11.324351|    0.824000|    0.012023|
|         943|   -8.715711|  -11.327284|    0.824000|    0.012023|
|         944|   -8.716564|  -11.330169|    0.824000|    0.012023|
|         945|   -8.716936|  -11.332983|    0.824000|    0.012023|
|         946|   -8.716871|  -11.335706|    0.824000|    0.012023|
|         947|   -8.716416|  -11.338318|    0.824000|    0.012023|
|         948|   -8.715624|  -11.340799|    0.824000|    0.012023|
|         949|   -8.714553|  -11.343134|    0.824000|    0.012023|
|         950|   -8.713259|  -11.345308|    0.824000|    0.012023|
|         951|   -8.711803|  -11.347311|    0.824000|    0.012023|
|         952|   -8.710241|  -11.349133|    0.824000|    0.012023|
|         953|   -8.708630|  -11.350770|    0.824000|    0.012023|
|         954|   -8.707024|  -11.352220|    0.824000|    0.012023|
|         955|   -8.705472|  -11.353484|    0.824000|    0.012023|
|         956|   -8.704022|  -11.354568|    0.824000|    0.012023|
|         957|   -8.702716|  -11.355480|    0.824000|    0.012023|
|         958|   -8.701595|  -11.356231|    0.824000|    0.012023|
|         959|   -8.700693|  -11.356837|    0.824000|    0.012023|
|         960|   -8.700042|  -11.357315|    0.824000|    0.012023|
|         961|   -8.699670|  -11.357684|    0.824000|    0.012023|
|         962|   -8.699601|  -11.357965|    0.824000|    0.012023|
|         963|   -8.699857|  -11.358182|    0.824000|    0.012023|
|         964|   -8.700453|  -11.358356|    0.824000|    0.012023|
|         965|   -8.701407|  -11.358513|    0.824000|    0.012023|
|         966|   -8.702731|  -11.358676|    0.824000|    0.012023|
|         967|   -8.704433|  -11.358868|    0.824000|    0.012023|
|         968|   -8.706521|  -11.359112|    0.824000|    0.012023|
|         969|   -8.709000|  -11.359428|    0.824000|    0.012023|
|         970|   -8.711872|  -11.359836|    0.824000|    0.012023|
|         971|   -8.715139|  -11.360353|    0.824000|    0.012023|
|         972|   -8.718797|  -11.360995|    0.824000|    0.012023|
|         973|   -8.722846|  -11.361773|    0.824000|    0.012023|
|         974|   -8.727277|  -11.362699|    0.824000|    0.012023|
|         975|   -8.732084|  -11.363780|    0.824000|    0.012023|
|         976|   -8.737256|  -11.365019|    0.824000|    0.012023|
|         977|   -8.742782|  -11.366418|    0.824000|    0.012023|
|         978|   -8.748648|  -11.367974|    0.824000|    0.012023|
[...]
|        3363|   -6.000394|   -7.924315|    0.824236|    0.012027|
|        3364|   -6.008130|   -7.928200|    0.824236|    0.012027|
|        3365|   -6.015776|   -7.931995|    0.824237|    0.012027|
|        3366|   -6.023264|   -7.935725|    0.824237|    0.012027|
|        3367|   -6.030530|   -7.939416|    0.824237|    0.012027|
|        3368|   -6.037516|   -7.943090|    0.824237|    0.012027|
|        3369|   -6.044165|   -7.946768|    0.824237|    0.012027|
|        3370|   -6.050432|   -7.950466|    0.824237|    0.012027|
|        3371|   -6.056278|   -7.954197|    0.824237|    0.012027|
|        3372|   -6.061674|   -7.957974|    0.824237|    0.012027|
|        3373|   -6.066605|   -7.961804|    0.824238|    0.012027|
|        3374|   -6.071066|   -7.965694|    0.824238|    0.012027|
|        3375|   -6.075063|   -7.969650|    0.824238|    0.012027|
|        3376|   -6.078616|   -7.973676|    0.824238|    0.012027|
|        3377|   -6.081752|   -7.977774|    0.824238|    0.012026|
|        3378|   -6.084507|   -7.981943|    0.824238|    0.012026|
|        3379|   -6.086929|   -7.986184|    0.824238|    0.012026|
|        3380|   -6.089067|   -7.990495|    0.824238|    0.012026|
|        3381|   -6.090975|   -7.994878|    0.824238|    0.012026|
|        3382|   -6.092710|   -7.999336|    0.824238|    0.012026|
|        3383|   -6.094329|   -8.003874|    0.824239|    0.012026|
|        3384|   -6.095885|   -8.008496|    0.824239|    0.012027|
|        3385|   -6.097431|   -8.013211|    0.824239|    0.012027|
|        3386|   -6.099015|   -8.018024|    0.824239|    0.012027|
|        3387|   -6.100681|   -8.022944|    0.824239|    0.012027|
|        3388|   -6.102467|   -8.027978|    0.824239|    0.012027|
|        3389|   -6.104406|   -8.033132|    0.824239|    0.012027|
|        3390|   -6.106523|   -8.038413|    0.824239|    0.012027|
|        3391|   -6.108837|   -8.043823|    0.824240|    0.012027|
|        3392|   -6.111362|   -8.049368|    0.824240|    0.012027|
|        3393|   -6.114105|   -8.055048|    0.824240|    0.012027|
|        3394|   -6.117063|   -8.060865|    0.824240|    0.012027|
|        3395|   -6.120232|   -8.066817|    0.824240|    0.012027|
|        3396|   -6.123597|   -8.072901|    0.824240|    0.012027|
|        3397|   -6.127139|   -8.079111|    0.824240|    0.012027|
|        3398|   -6.130835|   -8.085442|    0.824241|    0.012027|
|        3399|   -6.134655|   -8.091884|    0.824241|    0.012027|
|        3400|   -6.138565|   -8.098427|    0.824241|    0.012028|
|        3401|   -6.142528|   -8.105059|    0.824241|    0.012028|
|        3402|   -6.146506|   -8.111768|    0.824241|    0.012028|
|        3403|   -6.150456|   -8.118540|    0.824241|    0.012028|
|        3404|   -6.154338|   -8.125361|    0.824241|    0.012028|
|        3405|   -6.158113|   -8.132217|    0.824242|    0.012028|
|        3406|   -6.161743|   -8.139094|    0.824242|    0.012028|
|        3407|   -6.165195|   -8.145978|    0.824242|    0.012028|
|        3408|   -6.168440|   -8.152857|    0.824242|    0.012028|
|        3409|   -6.171459|   -8.159720|    0.824242|    0.012028|
|        3410|   -6.174234|   -8.166558|    0.824242|    0.012028|
|        3411|   -6.176761|   -8.173363|    0.824242|    0.012029|
|        3412|   -6.179040|   -8.180130|    0.824242|    0.012029|
|        3413|   -6.181081|   -8.186852|    0.824242|    0.012029|
|        3414|   -6.182901|   -8.193526|    0.824243|    0.012029|
|        3415|   -6.184523|   -8.200151|    0.824243|    0.012029|
|        3416|   -6.185978|   -8.206724|    0.824243|    0.012029|
|        3417|   -6.187301|   -8.213246|    0.824243|    0.012029|
|        3418|   -6.188531|   -8.219719|    0.824243|    0.012029|
|        3419|   -6.189709|   -8.226144|    0.824243|    0.012029|
|        3420|   -6.190878|   -8.232524|    0.824243|    0.012029|
|        3421|   -6.192081|   -8.238862|    0.824243|    0.012029|
|        3422|   -6.193360|   -8.245160|    0.824243|    0.012029|
|        3423|   -6.194754|   -8.251423|    0.824243|    0.012029|
|        3424|   -6.196301|   -8.257654|    0.824243|    0.012029|
|        3425|   -6.198037|   -8.263855|    0.824243|    0.012029|
|        3426|   -6.199990|   -8.270031|    0.824243|    0.012029|
|        3427|   -6.202188|   -8.276183|    0.824243|    0.012029|
|        3428|   -6.204653|   -8.282313|    0.824243|    0.012029|
|        3429|   -6.207402|   -8.288421|    0.824243|    0.012029|
|        3430|   -6.210449|   -8.294507|    0.824243|    0.012029|
|        3431|   -6.213800|   -8.300570|    0.824243|    0.012029|
|        3432|   -6.217459|   -8.306609|    0.824243|    0.012029|
|        3433|   -6.221425|   -8.312622|    0.824243|    0.012029|
|        3434|   -6.225690|   -8.318607|    0.824243|    0.012029|
|        3435|   -6.230242|   -8.324561|    0.824243|    0.012029|
|        3436|   -6.235066|   -8.330483|    0.824243|    0.012029|
|        3437|   -6.240139|   -8.336369|    0.824243|    0.012029|
|        3438|   -6.245435|   -8.342217|    0.824243|    0.012029|
|        3439|   -6.250923|   -8.348028|    0.824243|    0.012029|
|        3440|   -6.256570|   -8.353799|    0.824243|    0.012029|
|        3441|   -6.262336|   -8.359528|    0.824243|    0.012029|
|        3442|   -6.268178|   -8.365213|    0.824243|    0.012029|
|        3443|   -6.274053|   -8.370853|    0.824243|    0.012029|
|        3444|   -6.279913|   -8.376448|    0.824243|    0.012029|
|        3445|   -6.285710|   -8.382000|    0.824243|    0.012029|
|        3446|   -6.291395|   -8.387511|    0.824243|    0.012029|
|        3447|   -6.296921|   -8.392985|    0.824243|    0.012029|
|        3448|   -6.302243|   -8.398428|    0.824243|    0.012029|
|        3449|   -6.307318|   -8.403844|    0.824242|    0.012028|
|        3450|   -6.312108|   -8.409240|    0.824242|    0.012028|
|        3451|   -6.316579|   -8.414623|    0.824242|    0.012028|
|        3452|   -6.320707|   -8.420000|    0.824242|    0.012028|
|        3453|   -6.324470|   -8.425378|    0.824242|    0.012028|
|        3454|   -6.327857|   -8.430766|    0.824242|    0.012028|
|        3455|   -6.330861|   -8.436169|    0.824242|    0.012028|
|        3456|   -6.333485|   -8.441593|    0.824242|    0.012028|
|        3457|   -6.335736|   -8.447043|    0.824242|    0.012028|
|        3458|   -6.337629|   -8.452523|    0.824243|    0.012028|
|        3459|   -6.339183|   -8.458033|    0.824243|    0.012028|
|        3460|   -6.340420|   -8.463572|    0.824243|    0.012027|
|        3461|   -6.341366|   -8.469138|    0.824243|    0.012027|
|        3462|   -6.342048|   -8.474724|    0.824243|    0.012027|
|        3463|   -6.342495|   -8.480323|    0.824243|    0.012027|
|        3464|   -6.342732|   -8.485922|    0.824243|    0.012027|
|        3465|   -6.342788|   -8.491508|    0.824243|    0.012027|
|        3466|   -6.342687|   -8.497064|    0.824243|    0.012027|
|        3467|   -6.342451|   -8.502571|    0.824243|    0.012027|
|        3468|   -6.342102|   -8.508009|    0.824243|    0.012027|
|        3469|   -6.341657|   -8.513355|    0.824243|    0.012027|
|        3470|   -6.341131|   -8.518585|    0.824244|    0.012026|
|        3471|   -6.340538|   -8.523675|    0.824244|    0.012026|
|        3472|   -6.339888|   -8.528603|    0.824244|    0.012026|
|        3473|   -6.339190|   -8.533345|    0.824244|    0.012026|
|        3474|   -6.338450|   -8.537881|    0.824244|    0.012026|
|        3475|   -6.337674|   -8.542193|    0.824244|    0.012026|
|        3476|   -6.336866|   -8.546266|    0.824245|    0.012026|
|        3477|   -6.336029|   -8.550088|    0.824245|    0.012026|
|        3478|   -6.335166|   -8.553653|    0.824245|    0.012026|
|        3479|   -6.334279|   -8.556955|    0.824245|    0.012026|
|        3480|   -6.333370|   -8.559997|    0.824245|    0.012026|
|        3481|   -6.332442|   -8.562782|    0.824245|    0.012025|
|        3482|   -6.331496|   -8.565318|    0.824245|    0.012025|
|        3483|   -6.330537|   -8.567617|    0.824246|    0.012025|
|        3484|   -6.329567|   -8.569692|    0.824246|    0.012025|
|        3485|   -6.328589|   -8.571557|    0.824246|    0.012025|
|        3486|   -6.327610|   -8.573229|    0.824246|    0.012025|
|        3487|   -6.326632|   -8.574726|    0.824246|    0.012025|
|        3488|   -6.325663|   -8.576064|    0.824246|    0.012025|
|        3489|   -6.324709|   -8.577258|    0.824246|    0.012025|
|        3490|   -6.323777|   -8.578324|    0.824246|    0.012025|
|        3491|   -6.322876|   -8.579274|    0.824247|    0.012025|
|        3492|   -6.322013|   -8.580120|    0.824247|    0.012025|
|        3493|   -6.321199|   -8.580872|    0.824247|    0.012025|
|        3494|   -6.320444|   -8.581542|    0.824247|    0.012025|
|        3495|   -6.319760|   -8.582137|    0.824247|    0.012025|
|        3496|   -6.319156|   -8.582665|    0.824247|    0.012025|
|        3497|   -6.318647|   -8.583132|    0.824247|    0.012025|
|        3498|   -6.318246|   -8.583543|    0.824247|    0.012025|
|        3499|   -6.317964|   -8.583903|    0.824247|    0.012025|
|        3500|   -6.317818|   -8.584220|    0.824247|    0.012025|
|        3501|   -6.317820|   -8.584497|    0.824247|    0.012025|
|        3502|   -6.317984|   -8.584744|    0.824247|    0.012025|
|        3503|   -6.318326|   -8.584966|    0.824247|    0.012025|
|        3504|   -6.318859|   -8.585173|    0.824248|    0.012025|
|        3505|   -6.319596|   -8.585374|    0.824248|    0.012025|
|        3506|   -6.320550|   -8.585581|    0.824248|    0.012025|
|        3507|   -6.321734|   -8.585804|    0.824248|    0.012025|
|        3508|   -6.323158|   -8.586056|    0.824248|    0.012025|
|        3509|   -6.324832|   -8.586349|    0.824248|    0.012025|
|        3510|   -6.326763|   -8.586696|    0.824248|    0.012025|
|        3511|   -6.328959|   -8.587112|    0.824248|    0.012025|
|        3512|   -6.331423|   -8.587607|    0.824248|    0.012025|
|        3513|   -6.334157|   -8.588196|    0.824248|    0.012025|
|        3514|   -6.337161|   -8.588890|    0.824247|    0.012025|
|        3515|   -6.340429|   -8.589699|    0.824247|    0.012025|
|        3516|   -6.343958|   -8.590633|    0.824247|    0.012025|
|        3517|   -6.347738|   -8.591700|    0.824247|    0.012025|
|        3518|   -6.351757|   -8.592909|    0.824247|    0.012026|
|        3519|   -6.355997|   -8.594265|    0.824247|    0.012026|
|        3520|   -6.360440|   -8.595775|    0.824247|    0.012026|
|        3521|   -6.365062|   -8.597440|    0.824247|    0.012026|
|        3522|   -6.369836|   -8.599265|    0.824247|    0.012026|
|        3523|   -6.374731|   -8.601249|    0.824247|    0.012026|
|        3524|   -6.379713|   -8.603393|    0.824247|    0.012026|
|        3525|   -6.384745|   -8.605695|    0.824247|    0.012026|
|        3526|   -6.389787|   -8.608151|    0.824247|    0.012026|
|        3527|   -6.394796|   -8.610759|    0.824247|    0.012026|
|        3528|   -6.399727|   -8.613514|    0.824246|    0.012026|
|        3529|   -6.404534|   -8.616411|    0.824246|    0.012026|
|        3530|   -6.409173|   -8.619444|    0.824246|    0.012026|
|        3531|   -6.413597|   -8.622607|    0.824246|    0.012026|
|        3532|   -6.417764|   -8.625894|    0.824246|    0.012027|
|        3533|   -6.421633|   -8.629298|    0.824246|    0.012027|
|        3534|   -6.425168|   -8.632813|    0.824246|    0.012027|
|        3535|   -6.428337|   -8.636432|    0.824245|    0.012027|
|        3536|   -6.431117|   -8.640147|    0.824245|    0.012027|
|        3537|   -6.433488|   -8.643953|    0.824245|    0.012027|
|        3538|   -6.435440|   -8.647841|    0.824245|    0.012027|
|        3539|   -6.436970|   -8.651804|    0.824245|    0.012027|
|        3540|   -6.438082|   -8.655834|    0.824245|    0.012027|
|        3541|   -6.438788|   -8.659924|    0.824244|    0.012027|
|        3542|   -6.439106|   -8.664065|    0.824244|    0.012027|
|        3543|   -6.439063|   -8.668250|    0.824244|    0.012027|
|        3544|   -6.438687|   -8.672469|    0.824244|    0.012027|
|        3545|   -6.438015|   -8.676715|    0.824244|    0.012027|
|        3546|   -6.437083|   -8.680977|    0.824243|    0.012027|
|        3547|   -6.435933|   -8.685247|    0.824243|    0.012027|
|        3548|   -6.434604|   -8.689516|    0.824243|    0.012027|
|        3549|   -6.433139|   -8.693774|    0.824243|    0.012027|
|        3550|   -6.431579|   -8.698011|    0.824243|    0.012027|
|        3551|   -6.429964|   -8.702218|    0.824242|    0.012027|
|        3552|   -6.428332|   -8.706386|    0.824242|    0.012027|
|        3553|   -6.426718|   -8.710504|    0.824242|    0.012027|
|        3554|   -6.425156|   -8.714564|    0.824242|    0.012027|
|        3555|   -6.423677|   -8.718559|    0.824242|    0.012027|
|        3556|   -6.422308|   -8.722480|    0.824241|    0.012027|
|        3557|   -6.421075|   -8.726321|    0.824241|    0.012027|
|        3558|   -6.419999|   -8.730077|    0.824241|    0.012027|
|        3559|   -6.419099|   -8.733743|    0.824241|    0.012027|
|        3560|   -6.418392|   -8.737316|    0.824241|    0.012027|
|        3561|   -6.417891|   -8.740795|    0.824241|    0.012027|
|        3562|   -6.417609|   -8.744179|    0.824240|    0.012027|
|        3563|   -6.417554|   -8.747469|    0.824240|    0.012027|
|        3564|   -6.417734|   -8.750668|    0.824240|    0.012027|
|        3565|   -6.418152|   -8.753779|    0.824240|    0.012027|
|        3566|   -6.418813|   -8.756806|    0.824240|    0.012027|
|        3567|   -6.419718|   -8.759755|    0.824240|    0.012027|
|        3568|   -6.420867|   -8.762631|    0.824240|    0.012027|
|        3569|   -6.422258|   -8.765440|    0.824240|    0.012027|
|        3570|   -6.423890|   -8.768190|    0.824239|    0.012027|
|        3571|   -6.425758|   -8.770885|    0.824239|    0.012027|
|        3572|   -6.427859|   -8.773532|    0.824239|    0.012027|
|        3573|   -6.430187|   -8.776135|    0.824239|    0.012013|
+-----------------------------------------------------------------------+
|Fixed CL Mode (Finite Difference)       |Value                         |
+-----------------------------------------------------------------------+
|Delta CL / Delta AoA                    |0.239528                      |
|Delta CD / Delta CL                     |0.0165876                     |
|Delta CMz / Delta CL                    |0.000153612                   |
+-----------------------------------------------------------------------+
Writing Flow Meta-Data file: flow.meta

--------------------------- Finalizing Solver ---------------------------
Deleted CNumerics container.
Deleted CIntegration container.
Deleted CSolver container.
Deleted CIteration container.
Deleted CInterface container.
Deleted CGeometry container.
Deleted CFreeFormDefBox class.
Deleted CSurfaceMovement class.
Deleted CVolumetricMovement class.
Deleted CConfig container.
Deleted nInst container.
Deleted COutput class.
-------------------------------------------------------------------------

------------------------- Exit Success (SU2_CFD) ------------------------


-------------------------------------------------------------------------
|    ___ _   _ ___                                                      |
|   / __| | | |_  )   Release 8.0.0 "Harrier"                           |
|   \__ \ |_| |/ /                                                      |
|   |___/\___//___|   Suite (Solution Exporting Code)                   |
|                                                                       |
-------------------------------------------------------------------------
| SU2 Project Website: https://su2code.github.io                        |
|                                                                       |
| The SU2 Project is maintained by the SU2 Foundation                   |
| (http://su2foundation.org)                                            |
-------------------------------------------------------------------------
| Copyright 2012-2023, SU2 Contributors                                 |
|                                                                       |
| SU2 is free software; you can redistribute it and/or                  |
| modify it under the terms of the GNU Lesser General Public            |
| License as published by the Free Software Foundation; either          |
| version 2.1 of the License, or (at your option) any later version.    |
|                                                                       |
| SU2 is distributed in the hope that it will be useful,                |
| but WITHOUT ANY WARRANTY; without even the implied warranty of        |
| MERCHANTABILITY or FITNESS FOR A PARTICULAR PURPOSE. See the GNU      |
| Lesser General Public License for more details.                       |
|                                                                       |
| You should have received a copy of the GNU Lesser General Public      |
| License along with SU2. If not, see <http://www.gnu.org/licenses/>.   |
-------------------------------------------------------------------------

----------------- Physical Case Definition ( Zone 0 ) -------------------
Input mesh file name: mesh_RAE2822_turb_deform.su2

-------------------- Output Information ( Zone 0 ) ----------------------
The tabular file format is CSV (.csv).
Flow variables file name: flow.

------------- Config File Boundary Information ( Zone 0 ) ---------------
+-----------------------------------------------------------------------+
|                        Marker Type|                        Marker Name|
+-----------------------------------------------------------------------+
|                          Far-field|                           FARFIELD|
+-----------------------------------------------------------------------+
|                     Heat flux wall|                            AIRFOIL|
+-----------------------------------------------------------------------+
Two dimensional problem.
13937 grid points before partitioning.
22842 volume elements before partitioning.
2 surface markers.
192 boundary elements in index 0 (Marker = AIRFOIL).
40 boundary elements in index 1 (Marker = FARFIELD).
Executing the partitioning functions.
Building the graph adjacency structure.
Calling ParMETIS... graph partitioning complete (831 edge cuts).
Distributing ParMETIS coloring.
Rebalancing vertices.
Rebalancing volume element connectivity.
Rebalancing markers and surface elements.
14875 vertices including ghost points. 
23674 interior elements including halo cells. 
18780 triangles.
4894 quadrilaterals.
Establishing MPI communication patterns.
Identify vertices.
Storing a mapping from global to local point index.

------------------------- Solution Postprocessing -----------------------
Reading and storing the solution from restart_flow.
Volume output fields: COORDINATES, SOLUTION
  Info: Ignoring the following screen output fields:
  RMS_DENSITY, RMS_NU_TILDE, LIFT, DRAG
Screen output fields: INNER_ITER
  Info: Ignoring the following history output groups:
  RMS_RES, AERO_COEFF
History output group(s): ITER
Warning: No (valid) fields chosen for convergence monitoring. Convergence monitoring inactive.
Warning: No (valid) fields chosen for time convergence monitoring. Time convergence monitoring inactive.
|Paraview                           |flow.vtu                           |
|Paraview surface                   |surface_flow.vtu                   |
|CSV file                           |surface_flow.csv                   |

------------------------- Finalize Solver -------------------------
Deleted CGeometry container.
Deleted CSolver class.
Deleted CConfig container.
Deleted COutput class.

Completed in 0.020562 seconds on 6 cores.

------------------------- Exit Success (SU2_SOL) ------------------------

