
-------------------------------------------------------------------------
|    ___ _   _ ___                                                      |
|   / __| | | |_  )   Release 8.0.0 "Harrier"                           |
|   \__ \ |_| |/ /                                                      |
|   |___/\___//___|   Suite (Computational Fluid Dynamics Code)         |
|                                                                       |
-------------------------------------------------------------------------
| SU2 Project Website: https://su2code.github.io                        |
|                                                                       |
| The SU2 Project is maintained by the SU2 Foundation                   |
| (http://su2foundation.org)                                            |
-------------------------------------------------------------------------
| Copyright 2012-2023, SU2 Contributors                                 |
|                                                                       |
| SU2 is free software; you can redistribute it and/or                  |
| modify it under the terms of the GNU Lesser General Public            |
| License as published by the Free Software Foundation; either          |
| version 2.1 of the License, or (at your option) any later version.    |
|                                                                       |
| SU2 is distributed in the hope that it will be useful,                |
| but WITHOUT ANY WARRANTY; without even the implied warranty of        |
| MERCHANTABILITY or FITNESS FOR A PARTICULAR PURPOSE. See the GNU      |
| Lesser General Public License for more details.                       |
|                                                                       |
| You should have received a copy of the GNU Lesser General Public      |
| License along with SU2. If not, see <http://www.gnu.org/licenses/>.   |
-------------------------------------------------------------------------

Parsing config file for zone 0

----------------- Physical Case Definition ( Zone 0 ) -------------------
Compressible RANS equations.
Turbulence model: Spalart-Allmaras-noft2
Hybrid RANS/LES: No Hybrid RANS/LES
Mach number: 0.734.
Angle of attack (AoA): 2.31 deg, and angle of sideslip (AoS): 0 deg.
Reynolds number: 6.5e+06. Reference length 1.
Fixed CL mode, target value: 0.824.
Reading and writing binary SU2 native restart files.
Read flow solution from: solution_flow.dat.
Dimensional simulation.
The reference area is 1 m^2.
The semi-span will be computed using the max y(3D) value.
The reference length is 1 m.
Reference origin for moment evaluation is (0.25, 0, 0).
Surface(s) where the force coefficients are evaluated: AIRFOIL.

Surface(s) plotted in the output file: AIRFOIL.
Surface(s) affected by the design variables: AIRFOIL.
Input mesh file name: mesh_RAE2822_turb_deform.su2

--------------- Space Numerical Integration ( Zone 0 ) ------------------
Jameson-Schmidt-Turkel scheme (2nd order in space) for the flow inviscid terms.
JST viscous coefficients (2nd & 4th): 0.5, 0.02.
The method includes a grid stretching correction (p = 0.3).
Scalar upwind solver for the turbulence model.
First order integration in space.
Average of gradients with correction (viscous flow terms).
Average of gradients with correction (viscous turbulence terms).
Gradient for viscous and source terms: inverse-distance weighted Least-Squares.

--------------- Time Numerical Integration  ( Zone 0 ) ------------------
Local time stepping (steady state simulation).
Euler implicit method for the flow equations.
FGMRES is used for solving the linear system.
Using a ILU(0) preconditioning.
Convergence criteria of the linear solver: 1e-06.
Max number of linear iterations: 10.
No CFL adaptation.
Courant-Friedrichs-Lewy number:       10
Euler implicit time integration for the turbulence model.

------------------ Convergence Criteria  ( Zone 0 ) ---------------------
Maximum number of solver subiterations: 5500.
Begin convergence monitoring at iteration 10.
Residual minimum value: 1e-12.
Cauchy series min. value: 1e-06.
Number of Cauchy elements: 100.
Begin windowed time average at iteration 0.

-------------------- Output Information ( Zone 0 ) ----------------------
File writing frequency: 
+------------------------------------+
|                     File| Frequency|
+------------------------------------+
|                  RESTART|     10000|
|                 PARAVIEW|     10000|
|         SURFACE_PARAVIEW|     10000|
|              SURFACE_CSV|     10000|
+------------------------------------+
Writing the convergence history file every 1 inner iterations.
Writing the screen convergence history every 1 inner iterations.
The tabular file format is CSV (.csv).
Convergence history file name: history_direct.
Forces breakdown file name: forces_breakdown.dat.
Surface file name: surface_flow.
Volume file name: flow.
Restart file name: restart_flow.dat.

------------- Config File Boundary Information ( Zone 0 ) ---------------
+-----------------------------------------------------------------------+
|                        Marker Type|                        Marker Name|
+-----------------------------------------------------------------------+
|                          Far-field|                           FARFIELD|
+-----------------------------------------------------------------------+
|                     Heat flux wall|                            AIRFOIL|
+-----------------------------------------------------------------------+

-------------------- Output Preprocessing ( Zone 0 ) --------------------

WARNING: SURFACE_PRESSURE_DROP can only be computed for at least 2 surfaces (outlet, inlet, ...)

Screen output fields: INNER_ITER, RMS_DENSITY, RMS_NU_TILDE, LIFT, DRAG
History output group(s): ITER, RMS_RES, AERO_COEFF
Convergence field(s): RMS_DENSITY
Warning: No (valid) fields chosen for time convergence monitoring. Time convergence monitoring inactive.
Volume output fields: COORDINATES, SOLUTION, PRIMITIVE

------------------- Geometry Preprocessing ( Zone 0 ) -------------------
Two dimensional problem.
13937 grid points before partitioning.
22842 volume elements before partitioning.
2 surface markers.
192 boundary elements in index 0 (Marker = AIRFOIL).
40 boundary elements in index 1 (Marker = FARFIELD).
Executing the partitioning functions.
Building the graph adjacency structure.
Calling ParMETIS... graph partitioning complete (831 edge cuts).
Distributing ParMETIS coloring.
Rebalancing vertices.
Rebalancing volume element connectivity.
Rebalancing markers and surface elements.
14875 vertices including ghost points. 
23674 interior elements including halo cells. 
18780 triangles.
4894 quadrilaterals.
Establishing MPI communication patterns.
Setting point connectivity.
Renumbering points (Reverse Cuthill McKee Ordering).
Recomputing point connectivity.
Setting element connectivity.
Checking the numerical grid orientation.
All volume elements are correctly orientend.
All surface elements are correctly orientend.
Identifying edges and vertices.
Setting the control volume structure.
Area of the computational grid: 32209.9.
Searching for the closest normal neighbors to the surfaces.
Storing a mapping from global to local point index.
Compute the surface curvature.
Max K: 215.078. Mean K: 8.5161. Standard deviation K: 28.1035.
Checking for periodicity.
Computing mesh quality statistics for the dual control volumes.
+--------------------------------------------------------------+
|           Mesh Quality Metric|        Minimum|        Maximum|
+--------------------------------------------------------------+
|    Orthogonality Angle (deg.)|        74.3452|        89.9996|
|     CV Face Area Aspect Ratio|        1.00109|        3359.19|
|           CV Sub-Volume Ratio|        1.00066|        1220.97|
+--------------------------------------------------------------+
Finding max control volume width.
Communicating number of neighbors.
Wetted area = 2.02117 m.
Area projection in the x-plane = 0.128508 m, y-plane = 0.995873 m.
Max. coordinate in the x-direction = 1 m, y-direction = 0.0613789 m.
Min. coordinate in the x-direction = 0 m, y-direction = -0.0629708 m.
Computing wall distances.

-------------------- Solver Preprocessing ( Zone 0 ) --------------------
WARNING: AoA in the solution file (2.76548 deg.) +
         AoA offset in mesh file (0 deg.) = 2.76548 deg.
WARNING: SU2 will use the dCD/dCL provided in the direct solution file: 0.0211487.
WARNING: SU2 will use the dCMz/dCL provided in the direct solution file: 0.0231415.
Viscous flow: Computing pressure using the ideal gas law
based on the free-stream temperature and a density computed
from the Reynolds number.
Force coefficients computed using free-stream values.

-- Models:
+------------------------------------------------------------------------------+
|          Viscosity Model|        Conductivity Model|              Fluid Model|
+------------------------------------------------------------------------------+
|               SUTHERLAND|          CONSTANT_PRANDTL|             STANDARD_AIR|
+------------------------------------------------------------------------------+
-- Fluid properties:
+------------------------------------------------------------------------------+
|                  Name|    Dim. value|    Ref. value|      Unit|Non-dim. value|
+------------------------------------------------------------------------------+
|        Ref. Viscosity|     1.716e-05|             1|   N.s/m^2|     1.716e-05|
|      Sutherland Temp.|        273.15|             1|         K|        273.15|
|     Sutherland Const.|         110.4|             1|         K|         110.4|
+------------------------------------------------------------------------------+
|        Prandtl (Lam.)|             -|             -|         -|          0.71|
|       Prandtl (Turb.)|             -|             -|         -|           0.9|
+------------------------------------------------------------------------------+
|          Gas Constant|       287.058|             1|  N.m/kg.K|       287.058|
|      Spec. Heat Ratio|             -|             -|         -|           1.4|
+------------------------------------------------------------------------------+
-- Initial and free-stream conditions:
+------------------------------------------------------------------------------+
|                  Name|    Dim. value|    Ref. value|      Unit|Non-dim. value|
+------------------------------------------------------------------------------+
|       Static Pressure|         38515|             1|        Pa|         38515|
|               Density|      0.465631|             1|    kg/m^3|      0.465631|
|           Temperature|        288.15|             1|         K|        288.15|
|          Total Energy|        237984|             1|   m^2/s^2|        237984|
|            Velocity-X|       249.487|             1|       m/s|       249.487|
|            Velocity-Y|       12.0513|             1|       m/s|       12.0513|
|    Velocity Magnitude|       249.778|             1|       m/s|       249.778|
+------------------------------------------------------------------------------+
|             Viscosity|    1.7893e-05|             1|   N.s/m^2|    1.7893e-05|
|          Conductivity|             -|             1|   W/m^2.K|             -|
|     Turb. Kin. Energy|       233.959|             1|   m^2/s^2|       233.959|
|     Spec. Dissipation|        608834|             1|       1/s|        608834|
+------------------------------------------------------------------------------+
|           Mach Number|             -|             -|         -|         0.734|
|       Reynolds Number|             -|             -|         -|       6.5e+06|
+------------------------------------------------------------------------------+
Initialize Jacobian structure (Navier-Stokes). MG level: 0.
Initialize Jacobian structure (SA model).

------------------- Numerics Preprocessing ( Zone 0 ) -------------------

----------------- Integration Preprocessing ( Zone 0 ) ------------------

------------------- Iteration Preprocessing ( Zone 0 ) ------------------
Euler/Navier-Stokes/RANS fluid iteration.

------------------------------ Begin Solver -----------------------------

Simulation Run using the Single-zone Driver
WARNING: SU2 was not compiled for an AVX-capable architecture. Performance could be better,
         see https://su2code.github.io/docs_v7/Build-SU2-Linux-MacOS/#compiler-optimizations
+----------------------------------------------------------------+
|  Inner_Iter|    rms[Rho]|     rms[nu]|          CL|          CD|
+----------------------------------------------------------------+
|           0|   -4.301812|   -5.706937|    0.824411|    0.011820|
|           1|   -4.357052|   -5.803622|    0.824616|    0.011880|
|           2|   -4.415106|   -5.928057|    0.824665|    0.011918|
|           3|   -4.460041|   -6.076855|    0.824623|    0.011937|
|           4|   -4.492262|   -6.229436|    0.824550|    0.011943|
|           5|   -4.512458|   -6.335165|    0.824485|    0.011942|
|           6|   -4.521844|   -6.362276|    0.824448|    0.011941|
|           7|   -4.523220|   -6.346000|    0.824439|    0.011943|
|           8|   -4.519553|   -6.318966|    0.824455|    0.011950|
|           9|   -4.512826|   -6.287236|    0.824489|    0.011964|
|          10|   -4.504087|   -6.251846|    0.824536|    0.011984|
|          11|   -4.494008|   -6.217976|    0.824591|    0.012010|
|          12|   -4.483227|   -6.191956|    0.824650|    0.012040|
|          13|   -4.472362|   -6.178924|    0.824709|    0.012074|
|          14|   -4.461902|   -6.181241|    0.824763|    0.012110|
|          15|   -4.452171|   -6.198717|    0.824809|    0.012148|
|          16|   -4.443379|   -6.228372|    0.824842|    0.012187|
|          17|   -4.435705|   -6.263271|    0.824861|    0.012224|
|          18|   -4.429329|   -6.291486|    0.824864|    0.012260|
|          19|   -4.424404|   -6.300105|    0.824851|    0.012293|
|          20|   -4.421002|   -6.285562|    0.824821|    0.012323|
|          21|   -4.419061|   -6.256787|    0.824776|    0.012350|
|          22|   -4.418384|   -6.225968|    0.824719|    0.012372|
|          23|   -4.418678|   -6.201325|    0.824652|    0.012390|
|          24|   -4.419617|   -6.186466|    0.824578|    0.012405|
|          25|   -4.420918|   -6.182051|    0.824498|    0.012415|
|          26|   -4.422380|   -6.187063|    0.824416|    0.012422|
|          27|   -4.423894|   -6.199366|    0.824333|    0.012425|
|          28|   -4.425410|   -6.215949|    0.824252|    0.012426|
|          29|   -4.426888|   -6.233220|    0.824173|    0.012424|
|          30|   -4.428249|   -6.247639|    0.824098|    0.012419|
|          31|   -4.429352|   -6.256733|    0.824026|    0.012411|
|          32|   -4.429996|   -6.259935|    0.823958|    0.012402|
|          33|   -4.429956|   -6.258584|    0.823894|    0.012390|
|          34|   -4.429032|   -6.255084|    0.823833|    0.012377|
|          35|   -4.427105|   -6.251931|    0.823774|    0.012363|
|          36|   -4.424159|   -6.251061|    0.823718|    0.012347|
|          37|   -4.420285|   -6.253689|    0.823663|    0.012330|
|          38|   -4.415658|   -6.260405|    0.823609|    0.012313|
|          39|   -4.410494|   -6.271295|    0.823555|    0.012295|
|          40|   -4.405012|   -6.286039|    0.823502|    0.012277|
|          41|   -4.399408|   -6.303954|    0.823449|    0.012259|
|          42|   -4.393836|   -6.323995|    0.823397|    0.012240|
|          43|   -4.388402|   -6.344738|    0.823345|    0.012223|
|          44|   -4.383162|   -6.364432|    0.823295|    0.012205|
|          45|   -4.378129|   -6.381077|    0.823245|    0.012189|
|          46|   -4.373272|   -6.392886|    0.823198|    0.012172|
|          47|   -4.368525|   -6.398741|    0.823153|    0.012156|
|          48|   -4.363797|   -6.398524|    0.823112|    0.012141|
|          49|   -4.358985|   -6.393175|    0.823074|    0.012126|
|          50|   -4.353990|   -6.384324|    0.823041|    0.012112|
|          51|   -4.348729|   -6.373803|    0.823013|    0.012098|
|          52|   -4.343154|   -6.363263|    0.822991|    0.012084|
|          53|   -4.337253|   -6.353962|    0.822974|    0.012070|
|          54|   -4.331057|   -6.346743|    0.822965|    0.012057|
|          55|   -4.324631|   -6.342082|    0.822961|    0.012043|
|          56|   -4.318063|   -6.340170|    0.822965|    0.012030|
|          57|   -4.311453|   -6.340950|    0.822974|    0.012017|
|          58|   -4.304897|   -6.344217|    0.822990|    0.012004|
|          59|   -4.298480|   -6.349657|    0.823012|    0.011991|
|          60|   -4.292263|   -6.356881|    0.823039|    0.011979|
|          61|   -4.286287|   -6.365463|    0.823070|    0.011966|
|          62|   -4.280569|   -6.374968|    0.823105|    0.011955|
|          63|   -4.275108|   -6.384965|    0.823143|    0.011943|
|          64|   -4.269891|   -6.395059|    0.823183|    0.011932|
|          65|   -4.264899|   -6.404895|    0.823224|    0.011921|
|          66|   -4.260113|   -6.414169|    0.823266|    0.011911|
|          67|   -4.255520|   -6.422632|    0.823307|    0.011901|
|          68|   -4.251116|   -6.430101|    0.823348|    0.011892|
|          69|   -4.246905|   -6.436459|    0.823386|    0.011883|
|          70|   -4.242899|   -6.441675|    0.823423|    0.011875|
|          71|   -4.239117|   -6.445791|    0.823457|    0.011867|
|          72|   -4.235576|   -6.448906|    0.823489|    0.011860|
|          73|   -4.232296|   -6.451161|    0.823517|    0.011853|
|          74|   -4.229287|   -6.452698|    0.823542|    0.011847|
|          75|   -4.226556|   -6.453649|    0.823565|    0.011841|
|          76|   -4.224099|   -6.454104|    0.823584|    0.011835|
|          77|   -4.221906|   -6.454099|    0.823601|    0.011830|
|          78|   -4.219956|   -6.453637|    0.823615|    0.011825|
|          79|   -4.218225|   -6.452692|    0.823627|    0.011821|
|          80|   -4.216686|   -6.451234|    0.823637|    0.011817|
|          81|   -4.215307|   -6.449255|    0.823645|    0.011813|
|          82|   -4.214059|   -6.446792|    0.823652|    0.011809|
|          83|   -4.212918|   -6.443935|    0.823658|    0.011806|
|          84|   -4.211862|   -6.440820|    0.823662|    0.011803|
|          85|   -4.210878|   -6.437633|    0.823666|    0.011801|
|          86|   -4.209959|   -6.434573|    0.823670|    0.011799|
|          87|   -4.209107|   -6.431840|    0.823673|    0.011797|
|          88|   -4.208331|   -6.429611|    0.823676|    0.011795|
|          89|   -4.207651|   -6.428035|    0.823679|    0.011795|
|          90|   -4.207092|   -6.427219|    0.823682|    0.011794|
|          91|   -4.206683|   -6.427219|    0.823686|    0.011794|
|          92|   -4.206462|   -6.428054|    0.823691|    0.011795|
|          93|   -4.206465|   -6.429704|    0.823696|    0.011796|
|          94|   -4.206731|   -6.432119|    0.823701|    0.011797|
|          95|   -4.207297|   -6.435233|    0.823708|    0.011799|
|          96|   -4.208196|   -6.438963|    0.823716|    0.011802|
|          97|   -4.209457|   -6.443224|    0.823724|    0.011805|
|          98|   -4.211100|   -6.447930|    0.823734|    0.011809|
|          99|   -4.213135|   -6.453004|    0.823745|    0.011813|
|         100|   -4.215561|   -6.458372|    0.823757|    0.011818|
|         101|   -4.218366|   -6.463967|    0.823769|    0.011841|
+-----------------------------------------------------------------------+
|Fixed CL Mode                           |Value                         |
+-----------------------------------------------------------------------+
|Current CL                              |0.823769                      |
|Target CL                               |0.824                         |
|Previous AOA                            |2.76548                       |
|Changed AoA by                          |0.00121616                    |
+-----------------------------------------------------------------------+
+----------------------------------------------------------------+
|  Inner_Iter|    rms[Rho]|     rms[nu]|          CL|          CD|
+----------------------------------------------------------------+
|         102|   -3.107623|   -6.463191|    0.823783|    0.011847|
|         103|   -3.492333|   -6.472515|    0.823797|    0.011853|
|         104|   -3.738050|   -6.479373|    0.823812|    0.011860|
|         105|   -3.813029|   -6.485817|    0.823827|    0.011868|
|         106|   -3.856400|   -6.492150|    0.823842|    0.011876|
|         107|   -3.908976|   -6.498445|    0.823858|    0.011884|
|         108|   -3.968653|   -6.504724|    0.823873|    0.011892|
|         109|   -4.022541|   -6.510997|    0.823887|    0.011901|
|         110|   -4.060961|   -6.517271|    0.823901|    0.011910|
|         111|   -4.084693|   -6.523558|    0.823914|    0.011918|
|         112|   -4.099346|   -6.529871|    0.823926|    0.011927|
|         113|   -4.108782|   -6.536220|    0.823936|    0.011936|
|         114|   -4.114965|   -6.542609|    0.823945|    0.011945|
|         115|   -4.119725|   -6.549029|    0.823953|    0.011953|
|         116|   -4.124995|   -6.555454|    0.823959|    0.011962|
|         117|   -4.131994|   -6.561851|    0.823964|    0.011970|
|         118|   -4.140719|   -6.568184|    0.823968|    0.011977|
|         119|   -4.150176|   -6.574422|    0.823970|    0.011985|
|         120|   -4.159126|   -6.580543|    0.823970|    0.011992|
|         121|   -4.166819|   -6.586540|    0.823970|    0.011999|
|         122|   -4.173260|   -6.592422|    0.823968|    0.012005|
|         123|   -4.178937|   -6.598172|    0.823965|    0.012011|
|         124|   -4.184326|   -6.603803|    0.823962|    0.012016|
|         125|   -4.189582|   -6.609345|    0.823958|    0.012022|
|         126|   -4.194518|   -6.614840|    0.823954|    0.012027|
|         127|   -4.198770|   -6.620340|    0.823950|    0.012031|
|         128|   -4.201995|   -6.625902|    0.823945|    0.012036|
|         129|   -4.203987|   -6.631589|    0.823941|    0.012040|
|         130|   -4.204717|   -6.637455|    0.823937|    0.012044|
|         131|   -4.204312|   -6.643544|    0.823933|    0.012048|
|         132|   -4.203025|   -6.649886|    0.823930|    0.012052|
|         133|   -4.201173|   -6.656495|    0.823928|    0.012056|
|         134|   -4.199079|   -6.663364|    0.823926|    0.012060|
|         135|   -4.197011|   -6.670466|    0.823925|    0.012063|
|         136|   -4.195139|   -6.677748|    0.823924|    0.012067|
|         137|   -4.193521|   -6.685134|    0.823924|    0.012071|
|         138|   -4.192116|   -6.692540|    0.823925|    0.012075|
|         139|   -4.190810|   -6.699872|    0.823926|    0.012078|
|         140|   -4.189453|   -6.706968|    0.823928|    0.012082|
|         141|   -4.187896|   -6.713715|    0.823931|    0.012086|
|         142|   -4.186022|   -6.720033|    0.823933|    0.012090|
|         143|   -4.183775|   -6.725771|    0.823936|    0.012093|
|         144|   -4.181163|   -6.730832|    0.823939|    0.012097|
|         145|   -4.178257|   -6.735185|    0.823942|    0.012100|
|         146|   -4.175163|   -6.738802|    0.823945|    0.012104|
|         147|   -4.172002|   -6.741652|    0.823948|    0.012107|
|         148|   -4.168879|   -6.743777|    0.823950|    0.012110|
|         149|   -4.165872|   -6.745245|    0.823953|    0.012113|
|         150|   -4.163021|   -6.746131|    0.823955|    0.012116|
|         151|   -4.160335|   -6.746526|    0.823956|    0.012119|
|         152|   -4.157800|   -6.746538|    0.823958|    0.012121|
|         153|   -4.155389|   -6.746267|    0.823959|    0.012123|
|         154|   -4.153078|   -6.745807|    0.823959|    0.012125|
|         155|   -4.150850|   -6.745244|    0.823960|    0.012127|
|         156|   -4.148700|   -6.744667|    0.823960|    0.012128|
|         157|   -4.146635|   -6.744117|    0.823960|    0.012129|
|         158|   -4.144672|   -6.743615|    0.823960|    0.012130|
|         159|   -4.142831|   -6.743175|    0.823960|    0.012130|
|         160|   -4.141135|   -6.742809|    0.823960|    0.012130|
|         161|   -4.139603|   -6.742522|    0.823960|    0.012130|
|         162|   -4.138250|   -6.742299|    0.823960|    0.012130|
|         163|   -4.137086|   -6.742121|    0.823960|    0.012129|
|         164|   -4.136113|   -6.741948|    0.823961|    0.012128|
|         165|   -4.135333|   -6.741762|    0.823962|    0.012127|
|         166|   -4.134739|   -6.741560|    0.823963|    0.012126|
|         167|   -4.134326|   -6.741350|    0.823965|    0.012125|
|         168|   -4.134084|   -6.741152|    0.823967|    0.012123|
|         169|   -4.134003|   -6.740994|    0.823970|    0.012121|
|         170|   -4.134070|   -6.740929|    0.823973|    0.012120|
|         171|   -4.134271|   -6.741005|    0.823977|    0.012117|
|         172|   -4.134591|   -6.741289|    0.823981|    0.012115|
|         173|   -4.135012|   -6.741836|    0.823986|    0.012113|
|         174|   -4.135519|   -6.742699|    0.823991|    0.012111|
|         175|   -4.136094|   -6.743924|    0.823996|    0.012108|
|         176|   -4.136721|   -6.745559|    0.824002|    0.012105|
|         177|   -4.137387|   -6.747629|    0.824007|    0.012103|
|         178|   -4.138083|   -6.750153|    0.824013|    0.012100|
|         179|   -4.138801|   -6.753133|    0.824019|    0.012097|
|         180|   -4.139542|   -6.756546|    0.824026|    0.012094|
|         181|   -4.140309|   -6.760364|    0.824032|    0.012091|
|         182|   -4.141115|   -6.764552|    0.824038|    0.012088|
|         183|   -4.141976|   -6.769056|    0.824044|    0.012084|
|         184|   -4.142914|   -6.773820|    0.824049|    0.012081|
|         185|   -4.143957|   -6.778761|    0.824054|    0.012078|
|         186|   -4.145138|   -6.783805|    0.824059|    0.012074|
|         187|   -4.146489|   -6.788861|    0.824064|    0.012070|
|         188|   -4.148047|   -6.793844|    0.824068|    0.012067|
|         189|   -4.149847|   -6.798673|    0.824072|    0.012063|
|         190|   -4.151920|   -6.803279|    0.824076|    0.012059|
|         191|   -4.154296|   -6.807604|    0.824079|    0.012055|
|         192|   -4.156997|   -6.811617|    0.824082|    0.012051|
|         193|   -4.160039|   -6.815317|    0.824084|    0.012047|
|         194|   -4.163427|   -6.818714|    0.824086|    0.012043|
|         195|   -4.167158|   -6.821835|    0.824087|    0.012039|
|         196|   -4.171216|   -6.824738|    0.824088|    0.012035|
|         197|   -4.175574|   -6.827491|    0.824089|    0.012031|
|         198|   -4.180191|   -6.830168|    0.824089|    0.012027|
|         199|   -4.185014|   -6.832840|    0.824090|    0.012023|
|         200|   -4.189978|   -6.835655|    0.824090|    0.012019|
|         201|   -4.195007|   -6.838629|    0.824089|    0.012008|
+-----------------------------------------------------------------------+
|Fixed CL Mode                           |Value                         |
+-----------------------------------------------------------------------+
|Current CL                              |0.824089                      |
|Target CL                               |0.824                         |
|Previous AOA                            |2.7667                        |
|Changed AoA by                          |-0.000448001                  |
+-----------------------------------------------------------------------+
+----------------------------------------------------------------+
|  Inner_Iter|    rms[Rho]|     rms[nu]|          CL|          CD|
+----------------------------------------------------------------+
|         202|   -3.532628|   -6.835845|    0.824089|    0.012004|
|         203|   -3.875960|   -6.841795|    0.824089|    0.012000|
|         204|   -4.038194|   -6.846251|    0.824088|    0.011997|
|         205|   -4.075618|   -6.850855|    0.824088|    0.011993|
|         206|   -4.100121|   -6.855863|    0.824087|    0.011989|
|         207|   -4.129750|   -6.861311|    0.824087|    0.011986|
|         208|   -4.160203|   -6.867150|    0.824086|    0.011983|
|         209|   -4.184907|   -6.873326|    0.824086|    0.011979|
|         210|   -4.201164|   -6.879780|    0.824085|    0.011977|
|         211|   -4.210466|   -6.886426|    0.824085|    0.011974|
|         212|   -4.215376|   -6.893162|    0.824085|    0.011971|
|         213|   -4.217653|   -6.899875|    0.824086|    0.011969|
|         214|   -4.218360|   -6.906452|    0.824086|    0.011967|
|         215|   -4.218342|   -6.912777|    0.824087|    0.011965|
|         216|   -4.218328|   -6.918724|    0.824088|    0.011963|
|         217|   -4.218778|   -6.924158|    0.824089|    0.011962|
|         218|   -4.219811|   -6.928957|    0.824090|    0.011961|
|         219|   -4.221303|   -6.933023|    0.824092|    0.011960|
|         220|   -4.223081|   -6.936286|    0.824094|    0.011959|
|         221|   -4.225074|   -6.938704|    0.824096|    0.011959|
|         222|   -4.227358|   -6.940262|    0.824098|    0.011959|
|         223|   -4.230100|   -6.940982|    0.824101|    0.011959|
|         224|   -4.233468|   -6.940920|    0.824104|    0.011959|
|         225|   -4.237583|   -6.940169|    0.824107|    0.011960|
|         226|   -4.242506|   -6.938847|    0.824111|    0.011961|
|         227|   -4.248258|   -6.937084|    0.824114|    0.011962|
|         228|   -4.254847|   -6.935019|    0.824119|    0.011963|
|         229|   -4.262271|   -6.932793|    0.824123|    0.011965|
|         230|   -4.270528|   -6.930542|    0.824128|    0.011967|
|         231|   -4.279610|   -6.928390|    0.824133|    0.011968|
|         232|   -4.289510|   -6.926449|    0.824138|    0.011971|
|         233|   -4.300217|   -6.924828|    0.824144|    0.011973|
|         234|   -4.311722|   -6.923622|    0.824150|    0.011975|
|         235|   -4.324006|   -6.922904|    0.824156|    0.011978|
|         236|   -4.337036|   -6.922735|    0.824162|    0.011980|
|         237|   -4.350756|   -6.923151|    0.824169|    0.011983|
|         238|   -4.365080|   -6.924166|    0.824176|    0.011986|
|         239|   -4.379891|   -6.925780|    0.824183|    0.011989|
|         240|   -4.395036|   -6.927977|    0.824191|    0.011992|
|         241|   -4.410333|   -6.930729|    0.824198|    0.011996|
|         242|   -4.425579|   -6.933989|    0.824206|    0.011999|
|         243|   -4.440560|   -6.937709|    0.824213|    0.012002|
|         244|   -4.455066|   -6.941815|    0.824221|    0.012006|
|         245|   -4.468906|   -6.946220|    0.824228|    0.012009|
|         246|   -4.481919|   -6.950829|    0.824236|    0.012013|
|         247|   -4.493974|   -6.955534|    0.824243|    0.012016|
|         248|   -4.504972|   -6.960229|    0.824250|    0.012019|
|         249|   -4.514844|   -6.964802|    0.824257|    0.012023|
|         250|   -4.523543|   -6.969160|    0.824263|    0.012026|
|         251|   -4.531045|   -6.973210|    0.824269|    0.012029|
|         252|   -4.537348|   -6.976889|    0.824275|    0.012033|
|         253|   -4.542476|   -6.980146|    0.824280|    0.012036|
|         254|   -4.546482|   -6.982952|    0.824285|    0.012039|
|         255|   -4.549445|   -6.985299|    0.824288|    0.012042|
|         256|   -4.551470|   -6.987207|    0.824292|    0.012045|
|         257|   -4.552682|   -6.988716|    0.824294|    0.012048|
|         258|   -4.553214|   -6.989885|    0.824296|    0.012050|
|         259|   -4.553202|   -6.990790|    0.824297|    0.012053|
|         260|   -4.552778|   -6.991510|    0.824297|    0.012055|
|         261|   -4.552062|   -6.992128|    0.824297|    0.012058|
|         262|   -4.551162|   -6.992726|    0.824295|    0.012060|
|         263|   -4.550167|   -6.993374|    0.824293|    0.012062|
|         264|   -4.549156|   -6.994115|    0.824290|    0.012064|
|         265|   -4.548194|   -6.994995|    0.824287|    0.012065|
|         266|   -4.547334|   -6.996101|    0.824283|    0.012067|
|         267|   -4.546621|   -6.997379|    0.824278|    0.012068|
|         268|   -4.546093|   -6.998799|    0.824273|    0.012070|
|         269|   -4.545782|   -7.000313|    0.824267|    0.012071|
|         270|   -4.545714|   -7.001850|    0.824260|    0.012072|
|         271|   -4.545908|   -7.003331|    0.824254|    0.012072|
|         272|   -4.546383|   -7.004652|    0.824247|    0.012073|
|         273|   -4.547151|   -7.005702|    0.824239|    0.012073|
|         274|   -4.548223|   -7.006371|    0.824232|    0.012074|
|         275|   -4.549603|   -7.006558|    0.824224|    0.012074|
|         276|   -4.551298|   -7.006167|    0.824217|    0.012074|
|         277|   -4.553307|   -7.005157|    0.824209|    0.012074|
|         278|   -4.555631|   -7.003472|    0.824202|    0.012073|
|         279|   -4.558266|   -7.001106|    0.824195|    0.012073|
|         280|   -4.561207|   -6.998092|    0.824187|    0.012073|
|         281|   -4.564448|   -6.994500|    0.824181|    0.012072|
|         282|   -4.567977|   -6.990415|    0.824174|    0.012071|
|         283|   -4.571784|   -6.985952|    0.824168|    0.012070|
|         284|   -4.575854|   -6.981246|    0.824163|    0.012069|
|         285|   -4.580170|   -6.976430|    0.824157|    0.012068|
|         286|   -4.584712|   -6.971644|    0.824153|    0.012067|
|         287|   -4.589459|   -6.967019|    0.824148|    0.012066|
|         288|   -4.594386|   -6.962678|    0.824144|    0.012065|
|         289|   -4.599466|   -6.958730|    0.824141|    0.012063|
|         290|   -4.604674|   -6.955267|    0.824138|    0.012062|
|         291|   -4.609979|   -6.952366|    0.824136|    0.012060|
|         292|   -4.615353|   -6.950086|    0.824134|    0.012058|
|         293|   -4.620767|   -6.948469|    0.824132|    0.012057|
|         294|   -4.626192|   -6.947545|    0.824131|    0.012055|
|         295|   -4.631602|   -6.947328|    0.824131|    0.012053|
|         296|   -4.636970|   -6.947821|    0.824130|    0.012051|
|         297|   -4.642276|   -6.949009|    0.824131|    0.012049|
|         298|   -4.647497|   -6.950869|    0.824131|    0.012047|
|         299|   -4.652618|   -6.953367|    0.824132|    0.012045|
|         300|   -4.657624|   -6.956457|    0.824133|    0.012043|
|         301|   -4.662503|   -6.960091|    0.824134|    0.012031|
+-----------------------------------------------------------------------+
|Fixed CL Mode                           |Value                         |
+-----------------------------------------------------------------------+
|Current CL                              |0.824134                      |
|Target CL                               |0.824                         |
|Previous AOA                            |2.76625                       |
|Changed AoA by                          |-0.000664222                  |
+-----------------------------------------------------------------------+
+----------------------------------------------------------------+
|  Inner_Iter|    rms[Rho]|     rms[nu]|          CL|          CD|
+----------------------------------------------------------------+
|         302|   -3.370369|   -6.943304|    0.824136|    0.012029|
|         303|   -3.751227|   -6.957727|    0.824138|    0.012027|
|         304|   -3.986476|   -6.965585|    0.824140|    0.012024|
|         305|   -4.060536|   -6.972362|    0.824142|    0.012022|
|         306|   -4.110937|   -6.978859|    0.824144|    0.012020|
|         307|   -4.175264|   -6.985224|    0.824147|    0.012018|
|         308|   -4.252388|   -6.991476|    0.824150|    0.012016|
|         309|   -4.329457|   -6.997616|    0.824152|    0.012013|
|         310|   -4.392524|   -7.003631|    0.824155|    0.012011|
|         311|   -4.436742|   -7.009499|    0.824158|    0.012009|
|         312|   -4.465304|   -7.015201|    0.824161|    0.012007|
|         313|   -4.482145|   -7.020741|    0.824165|    0.012005|
|         314|   -4.490446|   -7.026139|    0.824168|    0.012003|
|         315|   -4.494298|   -7.031414|    0.824171|    0.012001|
|         316|   -4.498180|   -7.036576|    0.824175|    0.011999|
|         317|   -4.505100|   -7.041627|    0.824179|    0.011997|
|         318|   -4.515708|   -7.046577|    0.824182|    0.011995|
|         319|   -4.528719|   -7.051447|    0.824186|    0.011993|
|         320|   -4.542093|   -7.056270|    0.824190|    0.011991|
|         321|   -4.554290|   -7.061073|    0.824194|    0.011989|
|         322|   -4.564925|   -7.065886|    0.824198|    0.011988|
|         323|   -4.574534|   -7.070729|    0.824203|    0.011986|
|         324|   -4.583843|   -7.075615|    0.824207|    0.011985|
|         325|   -4.593194|   -7.080558|    0.824211|    0.011983|
|         326|   -4.602433|   -7.085578|    0.824216|    0.011982|
|         327|   -4.611118|   -7.090697|    0.824221|    0.011981|
|         328|   -4.618780|   -7.095935|    0.824225|    0.011980|
|         329|   -4.625090|   -7.101313|    0.824230|    0.011979|
|         330|   -4.629910|   -7.106846|    0.824235|    0.011978|
|         331|   -4.633287|   -7.112529|    0.824240|    0.011977|
|         332|   -4.635441|   -7.118348|    0.824245|    0.011976|
|         333|   -4.636729|   -7.124300|    0.824250|    0.011976|
|         334|   -4.637574|   -7.130379|    0.824255|    0.011975|
|         335|   -4.638378|   -7.136566|    0.824261|    0.011974|
|         336|   -4.639438|   -7.142828|    0.824266|    0.011974|
|         337|   -4.640900|   -7.149129|    0.824271|    0.011974|
|         338|   -4.642754|   -7.155424|    0.824276|    0.011974|
|         339|   -4.644858|   -7.161672|    0.824281|    0.011974|
|         340|   -4.646987|   -7.167822|    0.824286|    0.011974|
|         341|   -4.648886|   -7.173826|    0.824291|    0.011974|
|         342|   -4.650338|   -7.179637|    0.824296|    0.011974|
|         343|   -4.651215|   -7.185212|    0.824300|    0.011974|
|         344|   -4.651521|   -7.190509|    0.824305|    0.011974|
|         345|   -4.651381|   -7.195496|    0.824309|    0.011975|
|         346|   -4.651010|   -7.200141|    0.824313|    0.011975|
|         347|   -4.650659|   -7.204421|    0.824316|    0.011976|
|         348|   -4.650553|   -7.208317|    0.824320|    0.011976|
|         349|   -4.650858|   -7.211821|    0.824323|    0.011977|
|         350|   -4.651658|   -7.214929|    0.824326|    0.011978|
|         351|   -4.652961|   -7.217646|    0.824328|    0.011978|
|         352|   -4.654719|   -7.219984|    0.824331|    0.011979|
|         353|   -4.656854|   -7.221966|    0.824332|    0.011980|
|         354|   -4.659284|   -7.223620|    0.824334|    0.011981|
|         355|   -4.661945|   -7.224984|    0.824334|    0.011982|
|         356|   -4.664804|   -7.226101|    0.824335|    0.011983|
|         357|   -4.667858|   -7.227020|    0.824335|    0.011984|
|         358|   -4.671133|   -7.227792|    0.824334|    0.011985|
|         359|   -4.674672|   -7.228476|    0.824333|    0.011986|
|         360|   -4.678521|   -7.229134|    0.824332|    0.011987|
|         361|   -4.682725|   -7.229828|    0.824330|    0.011988|
|         362|   -4.687314|   -7.230621|    0.824328|    0.011989|
|         363|   -4.692309|   -7.231573|    0.824325|    0.011990|
|         364|   -4.697713|   -7.232742|    0.824322|    0.011991|
|         365|   -4.703522|   -7.234179|    0.824318|    0.011992|
|         366|   -4.709722|   -7.235931|    0.824314|    0.011993|
|         367|   -4.716292|   -7.238037|    0.824310|    0.011994|
|         368|   -4.723212|   -7.240527|    0.824305|    0.011995|
|         369|   -4.730456|   -7.243423|    0.824300|    0.011996|
|         370|   -4.737996|   -7.246736|    0.824295|    0.011997|
|         371|   -4.745801|   -7.250464|    0.824289|    0.011997|
|         372|   -4.753834|   -7.254592|    0.824283|    0.011998|
|         373|   -4.762053|   -7.259093|    0.824277|    0.011999|
|         374|   -4.770407|   -7.263925|    0.824272|    0.012000|
|         375|   -4.778842|   -7.269031|    0.824265|    0.012001|
|         376|   -4.787293|   -7.274340|    0.824259|    0.012002|
|         377|   -4.795692|   -7.279768|    0.824253|    0.012003|
|         378|   -4.803964|   -7.285208|    0.824247|    0.012004|
|         379|   -4.812035|   -7.290551|    0.824241|    0.012004|
|         380|   -4.819825|   -7.295685|    0.824235|    0.012005|
|         381|   -4.827260|   -7.300491|    0.824229|    0.012006|
|         382|   -4.834265|   -7.304851|    0.824224|    0.012007|
|         383|   -4.840774|   -7.308655|    0.824218|    0.012007|
|         384|   -4.846728|   -7.311808|    0.824213|    0.012008|
|         385|   -4.852081|   -7.314238|    0.824207|    0.012008|
|         386|   -4.856796|   -7.315900|    0.824202|    0.012009|
|         387|   -4.860852|   -7.316771|    0.824197|    0.012009|
|         388|   -4.864244|   -7.316862|    0.824193|    0.012010|
|         389|   -4.866978|   -7.316210|    0.824188|    0.012010|
|         390|   -4.869077|   -7.314872|    0.824184|    0.012011|
|         391|   -4.870573|   -7.312943|    0.824180|    0.012011|
|         392|   -4.871510|   -7.310532|    0.824177|    0.012011|
|         393|   -4.871939|   -7.307756|    0.824173|    0.012012|
|         394|   -4.871916|   -7.304735|    0.824170|    0.012012|
|         395|   -4.871501|   -7.301575|    0.824167|    0.012012|
|         396|   -4.870751|   -7.298349|    0.824164|    0.012012|
|         397|   -4.869726|   -7.295160|    0.824161|    0.012012|
|         398|   -4.868481|   -7.292168|    0.824158|    0.012012|
|         399|   -4.867067|   -7.289459|    0.824156|    0.012012|
|         400|   -4.865532|   -7.287080|    0.824154|    0.012012|
|         401|   -4.863918|   -7.285072|    0.824152|    0.012001|
+-----------------------------------------------------------------------+
|Fixed CL Mode                           |Value                         |
+-----------------------------------------------------------------------+
|Current CL                              |0.824152                      |
|Target CL                               |0.824                         |
|Previous AOA                            |2.76558                       |
|Changed AoA by                          |-0.000768681                  |
+-----------------------------------------------------------------------+
+----------------------------------------------------------------+
|  Inner_Iter|    rms[Rho]|     rms[nu]|          CL|          CD|
+----------------------------------------------------------------+
|         402|   -3.307563|   -7.186000|    0.824150|    0.012001|
|         403|   -3.691393|   -7.229528|    0.824148|    0.012000|
|         404|   -3.933031|   -7.243920|    0.824147|    0.012000|
|         405|   -4.009795|   -7.252119|    0.824145|    0.012000|
|         406|   -4.061888|   -7.258076|    0.824144|    0.012000|
|         407|   -4.129479|   -7.262774|    0.824143|    0.011999|
|         408|   -4.212415|   -7.266594|    0.824142|    0.011999|
|         409|   -4.297815|   -7.269801|    0.824141|    0.011998|
|         410|   -4.370010|   -7.272570|    0.824140|    0.011998|
|         411|   -4.421923|   -7.274963|    0.824139|    0.011998|
|         412|   -4.455827|   -7.277018|    0.824138|    0.011997|
|         413|   -4.475626|   -7.278842|    0.824137|    0.011996|
|         414|   -4.484873|   -7.280572|    0.824137|    0.011996|
|         415|   -4.488662|   -7.282287|    0.824136|    0.011995|
|         416|   -4.492727|   -7.283975|    0.824136|    0.011995|
|         417|   -4.500947|   -7.285562|    0.824135|    0.011994|
|         418|   -4.514232|   -7.286982|    0.824135|    0.011994|
|         419|   -4.531054|   -7.288199|    0.824134|    0.011993|
|         420|   -4.548839|   -7.289205|    0.824134|    0.011992|
|         421|   -4.565548|   -7.289997|    0.824134|    0.011992|
|         422|   -4.580636|   -7.290550|    0.824133|    0.011991|
|         423|   -4.594848|   -7.290826|    0.824133|    0.011991|
|         424|   -4.609240|   -7.290797|    0.824133|    0.011990|
|         425|   -4.624349|   -7.290445|    0.824132|    0.011989|
|         426|   -4.639959|   -7.289773|    0.824132|    0.011989|
|         427|   -4.655347|   -7.288815|    0.824131|    0.011988|
|         428|   -4.669667|   -7.287622|    0.824131|    0.011988|
|         429|   -4.682247|   -7.286259|    0.824131|    0.011987|
|         430|   -4.692732|   -7.284796|    0.824130|    0.011987|
|         431|   -4.701136|   -7.283310|    0.824130|    0.011986|
|         432|   -4.707838|   -7.281869|    0.824130|    0.011986|
|         433|   -4.713520|   -7.280535|    0.824129|    0.011985|
|         434|   -4.719027|   -7.279361|    0.824129|    0.011985|
|         435|   -4.725174|   -7.278388|    0.824129|    0.011984|
|         436|   -4.732587|   -7.277640|    0.824128|    0.011984|
|         437|   -4.741599|   -7.277138|    0.824128|    0.011983|
|         438|   -4.752218|   -7.276885|    0.824128|    0.011983|
|         439|   -4.764136|   -7.276883|    0.824127|    0.011983|
|         440|   -4.776780|   -7.277122|    0.824127|    0.011982|
|         441|   -4.789391|   -7.277596|    0.824127|    0.011982|
|         442|   -4.801170|   -7.278290|    0.824126|    0.011982|
|         443|   -4.811457|   -7.279188|    0.824126|    0.011982|
|         444|   -4.819906|   -7.280273|    0.824126|    0.011982|
|         445|   -4.826568|   -7.281526|    0.824126|    0.011982|
|         446|   -4.831853|   -7.282926|    0.824125|    0.011981|
|         447|   -4.836375|   -7.284445|    0.824125|    0.011981|
|         448|   -4.840759|   -7.286055|    0.824124|    0.011981|
|         449|   -4.845481|   -7.287712|    0.824124|    0.011982|
|         450|   -4.850790|   -7.289378|    0.824123|    0.011982|
|         451|   -4.856690|   -7.291009|    0.824123|    0.011982|
|         452|   -4.862984|   -7.292561|    0.824122|    0.011982|
|         453|   -4.869350|   -7.293990|    0.824121|    0.011982|
|         454|   -4.875432|   -7.295258|    0.824120|    0.011982|
|         455|   -4.880920|   -7.296330|    0.824119|    0.011982|
|         456|   -4.885616|   -7.297170|    0.824117|    0.011983|
|         457|   -4.889454|   -7.297756|    0.824116|    0.011983|
|         458|   -4.892491|   -7.298073|    0.824114|    0.011983|
|         459|   -4.894870|   -7.298119|    0.824112|    0.011984|
|         460|   -4.896770|   -7.297926|    0.824110|    0.011984|
|         461|   -4.898367|   -7.297593|    0.824108|    0.011984|
|         462|   -4.899803|   -7.297125|    0.824105|    0.011985|
|         463|   -4.901177|   -7.296551|    0.824103|    0.011985|
|         464|   -4.902548|   -7.295936|    0.824100|    0.011985|
|         465|   -4.903948|   -7.295354|    0.824097|    0.011986|
|         466|   -4.905391|   -7.294882|    0.824093|    0.011986|
|         467|   -4.906889|   -7.294594|    0.824090|    0.011987|
|         468|   -4.908456|   -7.294564|    0.824087|    0.011987|
|         469|   -4.910114|   -7.294859|    0.824083|    0.011988|
|         470|   -4.911890|   -7.295541|    0.824079|    0.011988|
|         471|   -4.913814|   -7.296661|    0.824076|    0.011988|
|         472|   -4.915913|   -7.298260|    0.824072|    0.011989|
|         473|   -4.918216|   -7.300366|    0.824068|    0.011989|
|         474|   -4.920741|   -7.302993|    0.824064|    0.011990|
|         475|   -4.923504|   -7.306139|    0.824061|    0.011990|
|         476|   -4.926515|   -7.309790|    0.824057|    0.011991|
|         477|   -4.929781|   -7.313909|    0.824054|    0.011991|
|         478|   -4.933304|   -7.318447|    0.824051|    0.011991|
|         479|   -4.937084|   -7.323336|    0.824048|    0.011992|
|         480|   -4.941120|   -7.328491|    0.824045|    0.011992|
|         481|   -4.945408|   -7.333815|    0.824042|    0.011992|
|         482|   -4.949943|   -7.339199|    0.824040|    0.011993|
|         483|   -4.954719|   -7.344528|    0.824038|    0.011993|
|         484|   -4.959724|   -7.349683|    0.824036|    0.011993|
|         485|   -4.964949|   -7.354542|    0.824035|    0.011994|
|         486|   -4.970377|   -7.358999|    0.824033|    0.011994|
|         487|   -4.975993|   -7.362967|    0.824032|    0.011994|
|         488|   -4.981775|   -7.366378|    0.824032|    0.011994|
|         489|   -4.987702|   -7.369195|    0.824031|    0.011994|
|         490|   -4.993750|   -7.371411|    0.824031|    0.011994|
|         491|   -4.999889|   -7.373051|    0.824031|    0.011995|
|         492|   -5.006089|   -7.374167|    0.824031|    0.011995|
|         493|   -5.012317|   -7.374840|    0.824031|    0.011995|
|         494|   -5.018537|   -7.375169|    0.824032|    0.011994|
|         495|   -5.024709|   -7.375266|    0.824033|    0.011994|
|         496|   -5.030793|   -7.375253|    0.824034|    0.011994|
|         497|   -5.036745|   -7.375247|    0.824035|    0.011994|
|         498|   -5.042520|   -7.375366|    0.824036|    0.011994|
|         499|   -5.048073|   -7.375752|    0.824038|    0.011994|
|         500|   -5.053357|   -7.376493|    0.824039|    0.011993|
|         501|   -5.058329|   -7.377651|    0.824041|    0.011990|
+-----------------------------------------------------------------------+
|Fixed CL Mode                           |Value                         |
+-----------------------------------------------------------------------+
|Current CL                              |0.824041                      |
|Target CL                               |0.824                         |
|Previous AOA                            |2.76481                       |
|Changed AoA by                          |-0.000197467                  |
+-----------------------------------------------------------------------+
+----------------------------------------------------------------+
|  Inner_Iter|    rms[Rho]|     rms[nu]|          CL|          CD|
+----------------------------------------------------------------+
|         502|   -3.897278|   -7.367517|    0.824043|    0.011990|
|         503|   -4.278354|   -7.375739|    0.824045|    0.011989|
|         504|   -4.511988|   -7.380208|    0.824047|    0.011989|
|         505|   -4.582087|   -7.384426|    0.824048|    0.011988|
|         506|   -4.627835|   -7.388917|    0.824050|    0.011988|
|         507|   -4.686219|   -7.393773|    0.824052|    0.011987|
|         508|   -4.755143|   -7.398996|    0.824054|    0.011987|
|         509|   -4.821757|   -7.404561|    0.824056|    0.011986|
|         510|   -4.873929|   -7.410430|    0.824057|    0.011986|
|         511|   -4.908952|   -7.416544|    0.824059|    0.011985|
|         512|   -4.930764|   -7.422839|    0.824061|    0.011984|
|         513|   -4.943211|   -7.429251|    0.824062|    0.011984|
|         514|   -4.949019|   -7.435722|    0.824064|    0.011983|
|         515|   -4.951267|   -7.442185|    0.824065|    0.011982|
|         516|   -4.953195|   -7.448557|    0.824066|    0.011982|
|         517|   -4.956946|   -7.454756|    0.824067|    0.011981|
|         518|   -4.962943|   -7.460704|    0.824068|    0.011980|
|         519|   -4.970266|   -7.466334|    0.824069|    0.011980|
|         520|   -4.977575|   -7.471594|    0.824070|    0.011979|
|         521|   -4.983983|   -7.476452|    0.824070|    0.011978|
|         522|   -4.989400|   -7.480867|    0.824071|    0.011978|
|         523|   -4.994264|   -7.484807|    0.824071|    0.011977|
|         524|   -4.999042|   -7.488247|    0.824071|    0.011976|
|         525|   -5.003904|   -7.491181|    0.824071|    0.011976|
|         526|   -5.008698|   -7.493611|    0.824070|    0.011975|
|         527|   -5.013117|   -7.495556|    0.824070|    0.011975|
|         528|   -5.016887|   -7.497045|    0.824069|    0.011974|
|         529|   -5.019859|   -7.498116|    0.824068|    0.011974|
|         530|   -5.022036|   -7.498814|    0.824067|    0.011973|
|         531|   -5.023550|   -7.499185|    0.824066|    0.011973|
|         532|   -5.024634|   -7.499275|    0.824065|    0.011972|
|         533|   -5.025582|   -7.499127|    0.824064|    0.011972|
|         534|   -5.026702|   -7.498781|    0.824062|    0.011971|
|         535|   -5.028260|   -7.498268|    0.824061|    0.011971|
|         536|   -5.030438|   -7.497620|    0.824059|    0.011971|
|         537|   -5.033312|   -7.496862|    0.824058|    0.011970|
|         538|   -5.036855|   -7.496018|    0.824056|    0.011970|
|         539|   -5.040953|   -7.495111|    0.824054|    0.011970|
|         540|   -5.045435|   -7.494162|    0.824053|    0.011970|
|         541|   -5.050110|   -7.493195|    0.824051|    0.011970|
|         542|   -5.054805|   -7.492232|    0.824049|    0.011970|
|         543|   -5.059396|   -7.491302|    0.824047|    0.011970|
|         544|   -5.063832|   -7.490435|    0.824045|    0.011970|
|         545|   -5.068139|   -7.489663|    0.824043|    0.011970|
|         546|   -5.072403|   -7.489018|    0.824042|    0.011970|
|         547|   -5.076741|   -7.488531|    0.824040|    0.011971|
|         548|   -5.081262|   -7.488228|    0.824038|    0.011971|
|         549|   -5.086042|   -7.488136|    0.824037|    0.011971|
|         550|   -5.091107|   -7.488272|    0.824035|    0.011972|
|         551|   -5.096429|   -7.488649|    0.824033|    0.011972|
|         552|   -5.101934|   -7.489272|    0.824032|    0.011973|
|         553|   -5.107522|   -7.490136|    0.824030|    0.011973|
|         554|   -5.113083|   -7.491228|    0.824029|    0.011974|
|         555|   -5.118515|   -7.492522|    0.824028|    0.011975|
|         556|   -5.123736|   -7.493983|    0.824026|    0.011975|
|         557|   -5.128687|   -7.495560|    0.824025|    0.011976|
|         558|   -5.133335|   -7.497184|    0.824024|    0.011977|
|         559|   -5.137660|   -7.498793|    0.824022|    0.011978|
|         560|   -5.141656|   -7.500319|    0.824021|    0.011979|
|         561|   -5.145316|   -7.501696|    0.824020|    0.011980|
|         562|   -5.148632|   -7.502856|    0.824018|    0.011981|
|         563|   -5.151592|   -7.503738|    0.824017|    0.011982|
|         564|   -5.154181|   -7.504291|    0.824016|    0.011983|
|         565|   -5.156383|   -7.504472|    0.824014|    0.011984|
|         566|   -5.158187|   -7.504256|    0.824013|    0.011985|
|         567|   -5.159586|   -7.503631|    0.824012|    0.011986|
|         568|   -5.160583|   -7.502605|    0.824010|    0.011987|
|         569|   -5.161186|   -7.501203|    0.824009|    0.011988|
|         570|   -5.161415|   -7.499468|    0.824008|    0.011990|
|         571|   -5.161293|   -7.497455|    0.824006|    0.011991|
|         572|   -5.160852|   -7.495230|    0.824005|    0.011992|
|         573|   -5.160126|   -7.492865|    0.824003|    0.011993|
|         574|   -5.159152|   -7.490432|    0.824002|    0.011994|
|         575|   -5.157970|   -7.487996|    0.824000|    0.011995|
|         576|   -5.156620|   -7.485635|    0.823999|    0.011997|
|         577|   -5.155144|   -7.483421|    0.823997|    0.011998|
|         578|   -5.153583|   -7.481415|    0.823995|    0.011999|
|         579|   -5.151980|   -7.479668|    0.823994|    0.012000|
|         580|   -5.150373|   -7.478217|    0.823992|    0.012001|
|         581|   -5.148803|   -7.477088|    0.823991|    0.012002|
|         582|   -5.147307|   -7.476298|    0.823989|    0.012003|
|         583|   -5.145921|   -7.475846|    0.823988|    0.012004|
|         584|   -5.144679|   -7.475725|    0.823986|    0.012005|
|         585|   -5.143612|   -7.475913|    0.823985|    0.012006|
|         586|   -5.142749|   -7.476382|    0.823983|    0.012007|
|         587|   -5.142115|   -7.477094|    0.823982|    0.012007|
|         588|   -5.141736|   -7.478006|    0.823981|    0.012008|
|         589|   -5.141631|   -7.479074|    0.823979|    0.012009|
|         590|   -5.141821|   -7.480249|    0.823978|    0.012009|
|         591|   -5.142320|   -7.481483|    0.823977|    0.012010|
|         592|   -5.143143|   -7.482729|    0.823976|    0.012010|
|         593|   -5.144300|   -7.483942|    0.823975|    0.012011|
|         594|   -5.145801|   -7.485083|    0.823974|    0.012011|
|         595|   -5.147651|   -7.486117|    0.823973|    0.012012|
|         596|   -5.149855|   -7.487015|    0.823972|    0.012012|
|         597|   -5.152414|   -7.487758|    0.823971|    0.012012|
|         598|   -5.155326|   -7.488336|    0.823971|    0.012012|
|         599|   -5.158586|   -7.488744|    0.823970|    0.012012|
|         600|   -5.162188|   -7.488985|    0.823969|    0.012012|
|         601|   -5.166122|   -7.489067|    0.823968|    0.012014|
+-----------------------------------------------------------------------+
|Fixed CL Mode                           |Value                         |
+-----------------------------------------------------------------------+
|Current CL                              |0.823968                      |
|Target CL                               |0.824                         |
|Previous AOA                            |2.76462                       |
|Changed AoA by                          |0.00015445                    |
+-----------------------------------------------------------------------+
+----------------------------------------------------------------+
|  Inner_Iter|    rms[Rho]|     rms[nu]|          CL|          CD|
+----------------------------------------------------------------+
|         602|   -4.003434|   -7.476244|    0.823968|    0.012014|
|         603|   -4.383262|   -7.482403|    0.823967|    0.012014|
|         604|   -4.617323|   -7.484030|    0.823967|    0.012014|
|         605|   -4.690864|   -7.484655|    0.823966|    0.012014|
|         606|   -4.739874|   -7.484854|    0.823966|    0.012013|
|         607|   -4.801232|   -7.484799|    0.823966|    0.012013|
|         608|   -4.873130|   -7.484577|    0.823965|    0.012013|
|         609|   -4.942454|   -7.484251|    0.823965|    0.012012|
|         610|   -4.996480|   -7.483867|    0.823964|    0.012011|
|         611|   -5.032465|   -7.483450|    0.823964|    0.012011|
|         612|   -5.054905|   -7.483016|    0.823964|    0.012010|
|         613|   -5.068167|   -7.482587|    0.823963|    0.012010|
|         614|   -5.075267|   -7.482185|    0.823963|    0.012009|
|         615|   -5.079485|   -7.481829|    0.823963|    0.012008|
|         616|   -5.084234|   -7.481534|    0.823962|    0.012007|
|         617|   -5.091742|   -7.481302|    0.823962|    0.012006|
|         618|   -5.102359|   -7.481137|    0.823962|    0.012006|
|         619|   -5.114868|   -7.481046|    0.823961|    0.012005|
|         620|   -5.127449|   -7.481041|    0.823961|    0.012004|
|         621|   -5.138732|   -7.481132|    0.823960|    0.012003|
|         622|   -5.148345|   -7.481331|    0.823960|    0.012002|
|         623|   -5.156712|   -7.481644|    0.823959|    0.012001|
|         624|   -5.164457|   -7.482078|    0.823959|    0.012000|
|         625|   -5.171922|   -7.482640|    0.823959|    0.011999|
|         626|   -5.179067|   -7.483333|    0.823958|    0.011998|
|         627|   -5.185621|   -7.484163|    0.823958|    0.011997|
|         628|   -5.191283|   -7.485133|    0.823957|    0.011996|
|         629|   -5.195842|   -7.486244|    0.823957|    0.011995|
|         630|   -5.199215|   -7.487493|    0.823956|    0.011994|
|         631|   -5.201447|   -7.488874|    0.823956|    0.011993|
|         632|   -5.202709|   -7.490379|    0.823956|    0.011992|
|         633|   -5.203282|   -7.491996|    0.823955|    0.011991|
|         634|   -5.203509|   -7.493711|    0.823955|    0.011990|
|         635|   -5.203726|   -7.495509|    0.823955|    0.011989|
|         636|   -5.204203|   -7.497377|    0.823955|    0.011989|
|         637|   -5.205099|   -7.499295|    0.823955|    0.011988|
|         638|   -5.206457|   -7.501243|    0.823955|    0.011987|
|         639|   -5.208219|   -7.503205|    0.823955|    0.011986|
|         640|   -5.210252|   -7.505165|    0.823955|    0.011985|
|         641|   -5.212395|   -7.507111|    0.823955|    0.011985|
|         642|   -5.214498|   -7.509034|    0.823955|    0.011984|
|         643|   -5.216463|   -7.510932|    0.823956|    0.011983|
|         644|   -5.218278|   -7.512806|    0.823956|    0.011983|
|         645|   -5.220010|   -7.514662|    0.823957|    0.011982|
|         646|   -5.221795|   -7.516511|    0.823958|    0.011982|
|         647|   -5.223798|   -7.518366|    0.823959|    0.011981|
|         648|   -5.226175|   -7.520246|    0.823960|    0.011981|
|         649|   -5.229043|   -7.522170|    0.823961|    0.011980|
|         650|   -5.232463|   -7.524159|    0.823962|    0.011980|
|         651|   -5.236438|   -7.526238|    0.823964|    0.011980|
|         652|   -5.240929|   -7.528428|    0.823965|    0.011980|
|         653|   -5.245866|   -7.530754|    0.823967|    0.011979|
|         654|   -5.251176|   -7.533239|    0.823969|    0.011979|
|         655|   -5.256793|   -7.535905|    0.823970|    0.011979|
|         656|   -5.262670|   -7.538772|    0.823972|    0.011979|
|         657|   -5.268787|   -7.541857|    0.823974|    0.011980|
|         658|   -5.275143|   -7.545175|    0.823977|    0.011980|
|         659|   -5.281751|   -7.548737|    0.823979|    0.011980|
|         660|   -5.288632|   -7.552552|    0.823981|    0.011980|
|         661|   -5.295799|   -7.556624|    0.823983|    0.011981|
|         662|   -5.303260|   -7.560952|    0.823986|    0.011981|
|         663|   -5.311009|   -7.565534|    0.823988|    0.011981|
|         664|   -5.319026|   -7.570360|    0.823991|    0.011982|
|         665|   -5.327280|   -7.575418|    0.823993|    0.011982|
|         666|   -5.335731|   -7.580691|    0.823996|    0.011983|
|         667|   -5.344334|   -7.586157|    0.823998|    0.011984|
|         668|   -5.353039|   -7.591789|    0.824001|    0.011984|
|         669|   -5.361790|   -7.597558|    0.824003|    0.011985|
|         670|   -5.370533|   -7.603432|    0.824005|    0.011986|
|         671|   -5.379207|   -7.609378|    0.824008|    0.011986|
|         672|   -5.387750|   -7.615361|    0.824010|    0.011987|
|         673|   -5.396096|   -7.621348|    0.824012|    0.011988|
|         674|   -5.404176|   -7.627302|    0.824014|    0.011989|
|         675|   -5.411921|   -7.633190|    0.824016|    0.011990|
|         676|   -5.419261|   -7.638984|    0.824018|    0.011991|
|         677|   -5.426130|   -7.644659|    0.824019|    0.011992|
|         678|   -5.432467|   -7.650197|    0.824021|    0.011993|
|         679|   -5.438219|   -7.655586|    0.824022|    0.011994|
|         680|   -5.443345|   -7.660822|    0.824023|    0.011994|
|         681|   -5.447814|   -7.665908|    0.824024|    0.011995|
|         682|   -5.451612|   -7.670855|    0.824025|    0.011996|
|         683|   -5.454737|   -7.675679|    0.824026|    0.011997|
|         684|   -5.457206|   -7.680404|    0.824027|    0.011998|
|         685|   -5.459047|   -7.685056|    0.824027|    0.011999|
|         686|   -5.460302|   -7.689665|    0.824027|    0.012000|
|         687|   -5.461025|   -7.694264|    0.824027|    0.012001|
|         688|   -5.461280|   -7.698887|    0.824027|    0.012002|
|         689|   -5.461136|   -7.703567|    0.824027|    0.012003|
|         690|   -5.460669|   -7.708336|    0.824027|    0.012004|
|         691|   -5.459954|   -7.713226|    0.824026|    0.012005|
|         692|   -5.459069|   -7.718262|    0.824026|    0.012005|
|         693|   -5.458090|   -7.723468|    0.824025|    0.012006|
|         694|   -5.457089|   -7.728863|    0.824024|    0.012007|
|         695|   -5.456135|   -7.734460|    0.824023|    0.012008|
|         696|   -5.455291|   -7.740267|    0.824022|    0.012009|
|         697|   -5.454615|   -7.746285|    0.824021|    0.012009|
|         698|   -5.454160|   -7.752511|    0.824020|    0.012010|
|         699|   -5.453972|   -7.758938|    0.824019|    0.012010|
|         700|   -5.454094|   -7.765553|    0.824018|    0.012011|
|         701|   -5.454562|   -7.772338|    0.824016|    0.012010|
+-----------------------------------------------------------------------+
|Fixed CL Mode                           |Value                         |
+-----------------------------------------------------------------------+
|Current CL                              |0.824016                      |
|Target CL                               |0.824                         |
|Previous AOA                            |2.76477                       |
|Changed AoA by                          |-8.82619e-05                  |
+-----------------------------------------------------------------------+
+----------------------------------------------------------------+
|  Inner_Iter|    rms[Rho]|     rms[nu]|          CL|          CD|
+----------------------------------------------------------------+
|         702|   -4.247046|   -7.764981|    0.824015|    0.012011|
|         703|   -4.630206|   -7.779123|    0.824013|    0.012011|
|         704|   -4.872080|   -7.788058|    0.824012|    0.012012|
|         705|   -4.948730|   -7.796127|    0.824010|    0.012012|
|         706|   -4.998238|   -7.803996|    0.824009|    0.012012|
|         707|   -5.060125|   -7.811759|    0.824007|    0.012013|
|         708|   -5.132848|   -7.819374|    0.824006|    0.012013|
|         709|   -5.202547|   -7.826774|    0.824004|    0.012013|
|         710|   -5.255591|   -7.833900|    0.824002|    0.012013|
|         711|   -5.289279|   -7.840698|    0.824001|    0.012013|
|         712|   -5.308911|   -7.847141|    0.823999|    0.012013|
|         713|   -5.319576|   -7.853235|    0.823997|    0.012013|
|         714|   -5.324752|   -7.859004|    0.823996|    0.012013|
|         715|   -5.327952|   -7.864475|    0.823994|    0.012013|
|         716|   -5.332614|   -7.869663|    0.823992|    0.012013|
|         717|   -5.340870|   -7.874571|    0.823991|    0.012013|
|         718|   -5.352923|   -7.879200|    0.823989|    0.012013|
|         719|   -5.367383|   -7.883555|    0.823988|    0.012012|
|         720|   -5.382235|   -7.887644|    0.823986|    0.012012|
|         721|   -5.395933|   -7.891471|    0.823985|    0.012012|
|         722|   -5.408029|   -7.895039|    0.823984|    0.012011|
|         723|   -5.419017|   -7.898349|    0.823982|    0.012011|
|         724|   -5.429691|   -7.901402|    0.823981|    0.012010|
|         725|   -5.440592|   -7.904199|    0.823980|    0.012010|
|         726|   -5.451831|   -7.906747|    0.823979|    0.012009|
|         727|   -5.463199|   -7.909051|    0.823978|    0.012009|
|         728|   -5.474356|   -7.911129|    0.823976|    0.012008|
|         729|   -5.484954|   -7.912995|    0.823976|    0.012007|
|         730|   -5.494703|   -7.914667|    0.823975|    0.012007|
|         731|   -5.503411|   -7.916167|    0.823974|    0.012006|
|         732|   -5.511042|   -7.917521|    0.823973|    0.012005|
|         733|   -5.517739|   -7.918761|    0.823972|    0.012005|
|         734|   -5.523810|   -7.919917|    0.823972|    0.012004|
|         735|   -5.529636|   -7.921021|    0.823971|    0.012003|
|         736|   -5.535571|   -7.922103|    0.823970|    0.012002|
|         737|   -5.541860|   -7.923194|    0.823970|    0.012002|
|         738|   -5.548582|   -7.924322|    0.823970|    0.012001|
|         739|   -5.555651|   -7.925515|    0.823969|    0.012000|
|         740|   -5.562832|   -7.926799|    0.823969|    0.011999|
|         741|   -5.569801|   -7.928198|    0.823969|    0.011998|
|         742|   -5.576215|   -7.929734|    0.823968|    0.011998|
|         743|   -5.581807|   -7.931426|    0.823968|    0.011997|
|         744|   -5.586449|   -7.933289|    0.823968|    0.011996|
|         745|   -5.590191|   -7.935338|    0.823968|    0.011995|
|         746|   -5.593231|   -7.937584|    0.823968|    0.011995|
|         747|   -5.595855|   -7.940035|    0.823968|    0.011994|
|         748|   -5.598353|   -7.942695|    0.823967|    0.011993|
|         749|   -5.600957|   -7.945569|    0.823967|    0.011992|
|         750|   -5.603799|   -7.948655|    0.823967|    0.011992|
|         751|   -5.606907|   -7.951954|    0.823967|    0.011991|
|         752|   -5.610224|   -7.955459|    0.823967|    0.011990|
|         753|   -5.613641|   -7.959170|    0.823967|    0.011990|
|         754|   -5.617035|   -7.963080|    0.823967|    0.011989|
|         755|   -5.620300|   -7.967184|    0.823967|    0.011988|
|         756|   -5.623372|   -7.971477|    0.823967|    0.011988|
|         757|   -5.626232|   -7.975956|    0.823967|    0.011987|
|         758|   -5.628900|   -7.980618|    0.823967|    0.011987|
|         759|   -5.631425|   -7.985459|    0.823967|    0.011986|
|         760|   -5.633863|   -7.990475|    0.823967|    0.011986|
|         761|   -5.636267|   -7.995661|    0.823966|    0.011986|
|         762|   -5.638672|   -8.001015|    0.823966|    0.011985|
|         763|   -5.641097|   -8.006533|    0.823966|    0.011985|
|         764|   -5.643544|   -8.012210|    0.823966|    0.011985|
|         765|   -5.645998|   -8.018045|    0.823966|    0.011984|
|         766|   -5.648438|   -8.024029|    0.823966|    0.011984|
|         767|   -5.650839|   -8.030159|    0.823966|    0.011984|
|         768|   -5.653174|   -8.036425|    0.823966|    0.011984|
|         769|   -5.655420|   -8.042816|    0.823965|    0.011984|
|         770|   -5.657554|   -8.049318|    0.823965|    0.011984|
|         771|   -5.659553|   -8.055914|    0.823965|    0.011983|
|         772|   -5.661399|   -8.062580|    0.823965|    0.011983|
|         773|   -5.663071|   -8.069293|    0.823965|    0.011984|
|         774|   -5.664549|   -8.076024|    0.823965|    0.011984|
|         775|   -5.665816|   -8.082741|    0.823965|    0.011984|
|         776|   -5.666853|   -8.089416|    0.823965|    0.011984|
|         777|   -5.667648|   -8.096019|    0.823966|    0.011984|
|         778|   -5.668189|   -8.102521|    0.823966|    0.011984|
|         779|   -5.668470|   -8.108895|    0.823966|    0.011985|
|         780|   -5.668489|   -8.115119|    0.823966|    0.011985|
|         781|   -5.668248|   -8.121177|    0.823967|    0.011985|
|         782|   -5.667754|   -8.127059|    0.823967|    0.011986|
|         783|   -5.667018|   -8.132763|    0.823967|    0.011986|
|         784|   -5.666056|   -8.138292|    0.823968|    0.011987|
|         785|   -5.664885|   -8.143653|    0.823968|    0.011987|
|         786|   -5.663529|   -8.148858|    0.823969|    0.011988|
|         787|   -5.662010|   -8.153920|    0.823969|    0.011988|
|         788|   -5.660358|   -8.158851|    0.823970|    0.011989|
|         789|   -5.658599|   -8.163664|    0.823970|    0.011989|
|         790|   -5.656764|   -8.168365|    0.823971|    0.011990|
|         791|   -5.654884|   -8.172957|    0.823971|    0.011991|
|         792|   -5.652989|   -8.177437|    0.823972|    0.011991|
|         793|   -5.651109|   -8.181792|    0.823973|    0.011992|
|         794|   -5.649273|   -8.186004|    0.823973|    0.011993|
|         795|   -5.647510|   -8.190047|    0.823974|    0.011993|
|         796|   -5.645845|   -8.193890|    0.823974|    0.011994|
|         797|   -5.644302|   -8.197497|    0.823975|    0.011995|
|         798|   -5.642901|   -8.200828|    0.823975|    0.011995|
|         799|   -5.641661|   -8.203844|    0.823976|    0.011996|
|         800|   -5.640597|   -8.206509|    0.823976|    0.011997|
|         801|   -5.639721|   -8.208792|    0.823977|    0.011999|
+-----------------------------------------------------------------------+
|Fixed CL Mode                           |Value                         |
+-----------------------------------------------------------------------+
|Current CL                              |0.823977                      |
|Target CL                               |0.824                         |
|Previous AOA                            |2.76468                       |
|Changed AoA by                          |0.000119233                   |
+-----------------------------------------------------------------------+
+----------------------------------------------------------------+
|  Inner_Iter|    rms[Rho]|     rms[nu]|          CL|          CD|
+----------------------------------------------------------------+
|         802|   -4.116768|   -8.061762|    0.823977|    0.012000|
|         803|   -4.500090|   -8.125780|    0.823977|    0.012001|
|         804|   -4.740984|   -8.149247|    0.823977|    0.012001|
|         805|   -4.817737|   -8.162831|    0.823978|    0.012002|
|         806|   -4.869887|   -8.172289|    0.823978|    0.012002|
|         807|   -4.937326|   -8.179160|    0.823978|    0.012003|
|         808|   -5.019855|   -8.184106|    0.823978|    0.012004|
|         809|   -5.104577|   -8.187635|    0.823978|    0.012004|
|         810|   -5.175898|   -8.190134|    0.823978|    0.012005|
|         811|   -5.226891|   -8.191779|    0.823978|    0.012005|
|         812|   -5.259967|   -8.192712|    0.823978|    0.012006|
|         813|   -5.279158|   -8.193175|    0.823978|    0.012006|
|         814|   -5.288098|   -8.193467|    0.823978|    0.012007|
|         815|   -5.291816|   -8.193801|    0.823977|    0.012007|
|         816|   -5.295883|   -8.194258|    0.823977|    0.012008|
|         817|   -5.304025|   -8.194829|    0.823977|    0.012008|
|         818|   -5.317056|   -8.195532|    0.823976|    0.012008|
|         819|   -5.333391|   -8.196424|    0.823976|    0.012009|
|         820|   -5.350412|   -8.197605|    0.823975|    0.012009|
|         821|   -5.366035|   -8.199145|    0.823975|    0.012009|
|         822|   -5.379658|   -8.201068|    0.823974|    0.012009|
|         823|   -5.391960|   -8.203346|    0.823974|    0.012009|
|         824|   -5.403955|   -8.205924|    0.823973|    0.012010|
|         825|   -5.416179|   -8.208741|    0.823973|    0.012010|
|         826|   -5.428482|   -8.211720|    0.823972|    0.012010|
|         827|   -5.440271|   -8.214811|    0.823971|    0.012010|
|         828|   -5.450868|   -8.217959|    0.823970|    0.012010|
|         829|   -5.459749|   -8.221120|    0.823970|    0.012010|
|         830|   -5.466646|   -8.224243|    0.823969|    0.012010|
|         831|   -5.471570|   -8.227284|    0.823968|    0.012010|
|         832|   -5.474808|   -8.230181|    0.823967|    0.012010|
|         833|   -5.476882|   -8.232869|    0.823966|    0.012009|
|         834|   -5.478436|   -8.235266|    0.823966|    0.012009|
|         835|   -5.480097|   -8.237287|    0.823965|    0.012009|
|         836|   -5.482337|   -8.238837|    0.823964|    0.012009|
|         837|   -5.485401|   -8.239816|    0.823963|    0.012009|
|         838|   -5.489289|   -8.240121|    0.823963|    0.012008|
|         839|   -5.493785|   -8.239677|    0.823962|    0.012008|
|         840|   -5.498516|   -8.238416|    0.823961|    0.012008|
|         841|   -5.503038|   -8.236288|    0.823960|    0.012007|
|         842|   -5.506935|   -8.233277|    0.823960|    0.012007|
|         843|   -5.509927|   -8.229381|    0.823959|    0.012007|
|         844|   -5.511940|   -8.224644|    0.823959|    0.012006|
|         845|   -5.513123|   -8.219125|    0.823958|    0.012006|
|         846|   -5.513789|   -8.212904|    0.823958|    0.012005|
|         847|   -5.514329|   -8.206076|    0.823957|    0.012005|
|         848|   -5.515106|   -8.198749|    0.823957|    0.012005|
|         849|   -5.516386|   -8.191036|    0.823957|    0.012004|
|         850|   -5.518303|   -8.183055|    0.823956|    0.012004|
|         851|   -5.520859|   -8.174925|    0.823956|    0.012003|
|         852|   -5.523959|   -8.166763|    0.823956|    0.012003|
|         853|   -5.527453|   -8.158683|    0.823956|    0.012002|
|         854|   -5.531176|   -8.150792|    0.823956|    0.012002|
|         855|   -5.534993|   -8.143203|    0.823957|    0.012001|
|         856|   -5.538817|   -8.136015|    0.823957|    0.012001|
|         857|   -5.542619|   -8.129324|    0.823957|    0.012000|
|         858|   -5.546418|   -8.123215|    0.823958|    0.012000|
|         859|   -5.550266|   -8.117764|    0.823958|    0.012000|
|         860|   -5.554226|   -8.113044|    0.823959|    0.011999|
|         861|   -5.558353|   -8.109115|    0.823960|    0.011999|
|         862|   -5.562685|   -8.106033|    0.823961|    0.011998|
|         863|   -5.567235|   -8.103844|    0.823962|    0.011998|
|         864|   -5.571994|   -8.102586|    0.823963|    0.011997|
|         865|   -5.576934|   -8.102287|    0.823964|    0.011997|
|         866|   -5.582015|   -8.102966|    0.823965|    0.011997|
|         867|   -5.587191|   -8.104631|    0.823966|    0.011996|
|         868|   -5.592414|   -8.107277|    0.823967|    0.011996|
|         869|   -5.597636|   -8.110885|    0.823968|    0.011996|
|         870|   -5.602809|   -8.115421|    0.823969|    0.011995|
|         871|   -5.607887|   -8.120832|    0.823971|    0.011995|
|         872|   -5.612821|   -8.127046|    0.823972|    0.011995|
|         873|   -5.617562|   -8.133968|    0.823973|    0.011994|
|         874|   -5.622061|   -8.141482|    0.823974|    0.011994|
|         875|   -5.626266|   -8.149445|    0.823976|    0.011994|
|         876|   -5.630128|   -8.157690|    0.823977|    0.011994|
|         877|   -5.633600|   -8.166028|    0.823978|    0.011994|
|         878|   -5.636642|   -8.174255|    0.823979|    0.011993|
|         879|   -5.639219|   -8.182156|    0.823980|    0.011993|
|         880|   -5.641306|   -8.189514|    0.823981|    0.011993|
|         881|   -5.642890|   -8.196130|    0.823982|    0.011993|
|         882|   -5.643964|   -8.201828|    0.823983|    0.011993|
|         883|   -5.644536|   -8.206477|    0.823984|    0.011993|
|         884|   -5.644623|   -8.209997|    0.823985|    0.011993|
|         885|   -5.644249|   -8.212371|    0.823985|    0.011993|
|         886|   -5.643451|   -8.213641|    0.823986|    0.011993|
|         887|   -5.642269|   -8.213908|    0.823987|    0.011993|
|         888|   -5.640750|   -8.213317|    0.823987|    0.011993|
|         889|   -5.638947|   -8.212047|    0.823987|    0.011993|
|         890|   -5.636912|   -8.210295|    0.823988|    0.011993|
|         891|   -5.634700|   -8.208262|    0.823988|    0.011993|
|         892|   -5.632365|   -8.206140|    0.823988|    0.011993|
|         893|   -5.629958|   -8.204108|    0.823988|    0.011993|
|         894|   -5.627529|   -8.202318|    0.823989|    0.011993|
|         895|   -5.625123|   -8.200897|    0.823989|    0.011993|
|         896|   -5.622784|   -8.199946|    0.823989|    0.011993|
|         897|   -5.620549|   -8.199536|    0.823989|    0.011993|
|         898|   -5.618453|   -8.199715|    0.823988|    0.011994|
|         899|   -5.616525|   -8.200502|    0.823988|    0.011994|
|         900|   -5.614791|   -8.201896|    0.823988|    0.011994|
|         901|   -5.613275|   -8.203873|    0.823988|    0.011995|
+-----------------------------------------------------------------------+
|Fixed CL Mode                           |Value                         |
+-----------------------------------------------------------------------+
|Current CL                              |0.823988                      |
|Target CL                               |0.824                         |
|Previous AOA                            |2.7648                        |
[...]
|        5298|   -6.045656|   -7.935947|    0.824241|    0.012004|
|        5299|   -6.052320|   -7.939471|    0.824241|    0.012004|
|        5300|   -6.058541|   -7.943055|    0.824241|    0.012004|
|        5301|   -6.064288|   -7.946709|    0.824241|    0.012004|
|        5302|   -6.069541|   -7.950443|    0.824242|    0.012004|
|        5303|   -6.074294|   -7.954259|    0.824242|    0.012004|
|        5304|   -6.078555|   -7.958161|    0.824242|    0.012004|
|        5305|   -6.082342|   -7.962147|    0.824242|    0.012003|
|        5306|   -6.085687|   -7.966214|    0.824242|    0.012003|
|        5307|   -6.088630|   -7.970360|    0.824242|    0.012003|
|        5308|   -6.091222|   -7.974579|    0.824242|    0.012003|
|        5309|   -6.093516|   -7.978868|    0.824243|    0.012003|
|        5310|   -6.095572|   -7.983220|    0.824243|    0.012003|
|        5311|   -6.097450|   -7.987631|    0.824243|    0.012003|
|        5312|   -6.099214|   -7.992098|    0.824243|    0.012003|
|        5313|   -6.100921|   -7.996619|    0.824243|    0.012003|
|        5314|   -6.102627|   -8.001190|    0.824243|    0.012003|
|        5315|   -6.104386|   -8.005812|    0.824244|    0.012003|
|        5316|   -6.106244|   -8.010483|    0.824244|    0.012003|
|        5317|   -6.108243|   -8.015205|    0.824244|    0.012003|
|        5318|   -6.110418|   -8.019980|    0.824244|    0.012003|
|        5319|   -6.112799|   -8.024809|    0.824244|    0.012004|
|        5320|   -6.115408|   -8.029697|    0.824245|    0.012004|
|        5321|   -6.118260|   -8.034647|    0.824245|    0.012004|
|        5322|   -6.121363|   -8.039658|    0.824245|    0.012004|
|        5323|   -6.124719|   -8.044733|    0.824245|    0.012004|
|        5324|   -6.128323|   -8.049871|    0.824245|    0.012004|
|        5325|   -6.132165|   -8.055069|    0.824246|    0.012004|
|        5326|   -6.136227|   -8.060326|    0.824246|    0.012004|
|        5327|   -6.140484|   -8.065637|    0.824246|    0.012004|
|        5328|   -6.144909|   -8.070996|    0.824246|    0.012004|
|        5329|   -6.149466|   -8.076397|    0.824247|    0.012004|
|        5330|   -6.154119|   -8.081834|    0.824247|    0.012004|
|        5331|   -6.158827|   -8.087299|    0.824247|    0.012004|
|        5332|   -6.163545|   -8.092785|    0.824247|    0.012004|
|        5333|   -6.168227|   -8.098283|    0.824247|    0.012005|
|        5334|   -6.172828|   -8.103787|    0.824248|    0.012005|
|        5335|   -6.177303|   -8.109291|    0.824248|    0.012005|
|        5336|   -6.181611|   -8.114787|    0.824248|    0.012005|
|        5337|   -6.185717|   -8.120272|    0.824248|    0.012005|
|        5338|   -6.189586|   -8.125742|    0.824249|    0.012005|
|        5339|   -6.193194|   -8.131195|    0.824249|    0.012005|
|        5340|   -6.196523|   -8.136629|    0.824249|    0.012005|
|        5341|   -6.199564|   -8.142046|    0.824249|    0.012005|
|        5342|   -6.202319|   -8.147448|    0.824250|    0.012005|
|        5343|   -6.204795|   -8.152838|    0.824250|    0.012005|
|        5344|   -6.207009|   -8.158222|    0.824250|    0.012005|
|        5345|   -6.208989|   -8.163605|    0.824250|    0.012006|
|        5346|   -6.210763|   -8.168994|    0.824250|    0.012006|
|        5347|   -6.212371|   -8.174398|    0.824251|    0.012006|
|        5348|   -6.213853|   -8.179823|    0.824251|    0.012006|
|        5349|   -6.215252|   -8.185277|    0.824251|    0.012006|
|        5350|   -6.216618|   -8.190768|    0.824251|    0.012006|
|        5351|   -6.217993|   -8.196306|    0.824251|    0.012006|
|        5352|   -6.219423|   -8.201897|    0.824252|    0.012006|
|        5353|   -6.220951|   -8.207551|    0.824252|    0.012006|
|        5354|   -6.222616|   -8.213275|    0.824252|    0.012006|
|        5355|   -6.224457|   -8.219075|    0.824252|    0.012006|
|        5356|   -6.226506|   -8.224957|    0.824252|    0.012006|
|        5357|   -6.228794|   -8.230924|    0.824252|    0.012006|
|        5358|   -6.231343|   -8.236980|    0.824253|    0.012006|
|        5359|   -6.234176|   -8.243126|    0.824253|    0.012006|
|        5360|   -6.237305|   -8.249363|    0.824253|    0.012006|
|        5361|   -6.240743|   -8.255691|    0.824253|    0.012006|
|        5362|   -6.244494|   -8.262110|    0.824253|    0.012006|
|        5363|   -6.248560|   -8.268617|    0.824253|    0.012006|
|        5364|   -6.252935|   -8.275210|    0.824253|    0.012006|
|        5365|   -6.257609|   -8.281887|    0.824254|    0.012006|
|        5366|   -6.262569|   -8.288644|    0.824254|    0.012006|
|        5367|   -6.267795|   -8.295476|    0.824254|    0.012006|
|        5368|   -6.273262|   -8.302378|    0.824254|    0.012006|
|        5369|   -6.278941|   -8.309346|    0.824254|    0.012006|
|        5370|   -6.284799|   -8.316373|    0.824254|    0.012006|
|        5371|   -6.290797|   -8.323454|    0.824254|    0.012006|
|        5372|   -6.296893|   -8.330581|    0.824254|    0.012006|
|        5373|   -6.303044|   -8.337748|    0.824254|    0.012006|
|        5374|   -6.309200|   -8.344952|    0.824254|    0.012006|
|        5375|   -6.315313|   -8.352185|    0.824255|    0.012006|
|        5376|   -6.321332|   -8.359443|    0.824255|    0.012006|
|        5377|   -6.327209|   -8.366723|    0.824255|    0.012006|
|        5378|   -6.332893|   -8.374022|    0.824255|    0.012006|
|        5379|   -6.338339|   -8.381336|    0.824255|    0.012006|
|        5380|   -6.343506|   -8.388664|    0.824255|    0.012006|
|        5381|   -6.348356|   -8.396005|    0.824255|    0.012006|
|        5382|   -6.352859|   -8.403357|    0.824255|    0.012006|
|        5383|   -6.356990|   -8.410719|    0.824255|    0.012006|
|        5384|   -6.360733|   -8.418090|    0.824256|    0.012006|
|        5385|   -6.364080|   -8.425467|    0.824256|    0.012006|
|        5386|   -6.367029|   -8.432849|    0.824256|    0.012005|
|        5387|   -6.369584|   -8.440233|    0.824256|    0.012005|
|        5388|   -6.371759|   -8.447613|    0.824256|    0.012005|
|        5389|   -6.373571|   -8.454985|    0.824256|    0.012005|
|        5390|   -6.375042|   -8.462341|    0.824257|    0.012005|
|        5391|   -6.376198|   -8.469669|    0.824257|    0.012005|
|        5392|   -6.377065|   -8.476959|    0.824257|    0.012005|
|        5393|   -6.377673|   -8.484193|    0.824257|    0.012005|
|        5394|   -6.378050|   -8.491354|    0.824257|    0.012005|
|        5395|   -6.378224|   -8.498420|    0.824258|    0.012005|
|        5396|   -6.378221|   -8.505368|    0.824258|    0.012005|
|        5397|   -6.378065|   -8.512172|    0.824258|    0.012004|
|        5398|   -6.377777|   -8.518805|    0.824258|    0.012004|
|        5399|   -6.377378|   -8.525237|    0.824259|    0.012004|
|        5400|   -6.376882|   -8.531440|    0.824259|    0.012004|
|        5401|   -6.376305|   -8.537385|    0.824259|    0.012004|
|        5402|   -6.375657|   -8.543045|    0.824259|    0.012004|
|        5403|   -6.374948|   -8.548395|    0.824260|    0.012004|
|        5404|   -6.374186|   -8.553413|    0.824260|    0.012004|
|        5405|   -6.373375|   -8.558082|    0.824260|    0.012004|
|        5406|   -6.372522|   -8.562389|    0.824260|    0.012004|
|        5407|   -6.371628|   -8.566327|    0.824261|    0.012004|
|        5408|   -6.370698|   -8.569894|    0.824261|    0.012003|
|        5409|   -6.369734|   -8.573095|    0.824261|    0.012003|
|        5410|   -6.368738|   -8.575939|    0.824262|    0.012003|
|        5411|   -6.367712|   -8.578441|    0.824262|    0.012003|
|        5412|   -6.366659|   -8.580621|    0.824262|    0.012003|
|        5413|   -6.365582|   -8.582502|    0.824262|    0.012003|
|        5414|   -6.364484|   -8.584109|    0.824263|    0.012003|
|        5415|   -6.363368|   -8.585470|    0.824263|    0.012003|
|        5416|   -6.362239|   -8.586613|    0.824263|    0.012003|
|        5417|   -6.361101|   -8.587565|    0.824263|    0.012003|
|        5418|   -6.359960|   -8.588354|    0.824264|    0.012003|
|        5419|   -6.358820|   -8.589004|    0.824264|    0.012003|
|        5420|   -6.357689|   -8.589537|    0.824264|    0.012003|
|        5421|   -6.356574|   -8.589974|    0.824264|    0.012003|
|        5422|   -6.355483|   -8.590331|    0.824265|    0.012002|
|        5423|   -6.354425|   -8.590624|    0.824265|    0.012002|
|        5424|   -6.353408|   -8.590863|    0.824265|    0.012002|
|        5425|   -6.352444|   -8.591058|    0.824265|    0.012002|
|        5426|   -6.351544|   -8.591215|    0.824266|    0.012002|
|        5427|   -6.350719|   -8.591338|    0.824266|    0.012002|
|        5428|   -6.349982|   -8.591432|    0.824266|    0.012002|
|        5429|   -6.349347|   -8.591498|    0.824266|    0.012002|
|        5430|   -6.348827|   -8.591538|    0.824267|    0.012002|
|        5431|   -6.348437|   -8.591553|    0.824267|    0.012002|
|        5432|   -6.348192|   -8.591545|    0.824267|    0.012002|
|        5433|   -6.348107|   -8.591515|    0.824267|    0.012002|
|        5434|   -6.348197|   -8.591467|    0.824267|    0.012002|
|        5435|   -6.348477|   -8.591402|    0.824268|    0.012002|
|        5436|   -6.348960|   -8.591324|    0.824268|    0.012002|
|        5437|   -6.349663|   -8.591240|    0.824268|    0.012002|
|        5438|   -6.350596|   -8.591155|    0.824268|    0.012002|
|        5439|   -6.351773|   -8.591076|    0.824268|    0.012002|
|        5440|   -6.353204|   -8.591010|    0.824268|    0.012002|
|        5441|   -6.354898|   -8.590963|    0.824269|    0.012003|
|        5442|   -6.356863|   -8.590944|    0.824269|    0.012003|
|        5443|   -6.359104|   -8.590960|    0.824269|    0.012003|
|        5444|   -6.361624|   -8.591016|    0.824269|    0.012003|
|        5445|   -6.364424|   -8.591120|    0.824269|    0.012003|
|        5446|   -6.367503|   -8.591276|    0.824269|    0.012003|
|        5447|   -6.370856|   -8.591490|    0.824270|    0.012003|
|        5448|   -6.374475|   -8.591766|    0.824270|    0.012003|
|        5449|   -6.378350|   -8.592105|    0.824270|    0.012003|
|        5450|   -6.382467|   -8.592511|    0.824270|    0.012003|
|        5451|   -6.386809|   -8.592983|    0.824270|    0.012003|
|        5452|   -6.391355|   -8.593521|    0.824270|    0.012003|
|        5453|   -6.396082|   -8.594125|    0.824270|    0.012003|
|        5454|   -6.400962|   -8.594792|    0.824271|    0.012003|
|        5455|   -6.405965|   -8.595519|    0.824271|    0.012003|
|        5456|   -6.411057|   -8.596303|    0.824271|    0.012004|
|        5457|   -6.416203|   -8.597139|    0.824271|    0.012004|
|        5458|   -6.421364|   -8.598023|    0.824271|    0.012004|
|        5459|   -6.426498|   -8.598951|    0.824271|    0.012004|
|        5460|   -6.431565|   -8.599918|    0.824271|    0.012004|
|        5461|   -6.436522|   -8.600918|    0.824271|    0.012004|
|        5462|   -6.441326|   -8.601947|    0.824271|    0.012004|
|        5463|   -6.445935|   -8.603001|    0.824271|    0.012004|
|        5464|   -6.450310|   -8.604074|    0.824271|    0.012004|
|        5465|   -6.454414|   -8.605163|    0.824271|    0.012004|
|        5466|   -6.458213|   -8.606263|    0.824271|    0.012004|
|        5467|   -6.461679|   -8.607371|    0.824272|    0.012005|
|        5468|   -6.464788|   -8.608482|    0.824272|    0.012005|
|        5469|   -6.467522|   -8.609594|    0.824272|    0.012005|
|        5470|   -6.469871|   -8.610703|    0.824272|    0.012005|
|        5471|   -6.471829|   -8.611804|    0.824272|    0.012005|
|        5472|   -6.473398|   -8.612895|    0.824272|    0.012005|
|        5473|   -6.474587|   -8.613971|    0.824272|    0.012005|
|        5474|   -6.475410|   -8.615029|    0.824272|    0.012005|
|        5475|   -6.475886|   -8.616065|    0.824272|    0.012005|
|        5476|   -6.476041|   -8.617074|    0.824272|    0.012005|
|        5477|   -6.475902|   -8.618052|    0.824272|    0.012005|
|        5478|   -6.475501|   -8.618993|    0.824272|    0.012005|
|        5479|   -6.474872|   -8.619892|    0.824272|    0.012005|
|        5480|   -6.474050|   -8.620745|    0.824272|    0.012005|
|        5481|   -6.473070|   -8.621546|    0.824272|    0.012005|
|        5482|   -6.471968|   -8.622290|    0.824272|    0.012005|
|        5483|   -6.470779|   -8.622971|    0.824272|    0.012005|
|        5484|   -6.469535|   -8.623584|    0.824272|    0.012005|
|        5485|   -6.468270|   -8.624124|    0.824272|    0.012006|
|        5486|   -6.467013|   -8.624587|    0.824272|    0.012006|
|        5487|   -6.465791|   -8.624968|    0.824272|    0.012006|
|        5488|   -6.464630|   -8.625264|    0.824272|    0.012006|
|        5489|   -6.463553|   -8.625473|    0.824272|    0.012006|
|        5490|   -6.462581|   -8.625591|    0.824272|    0.012006|
|        5491|   -6.461730|   -8.625617|    0.824272|    0.012006|
|        5492|   -6.461018|   -8.625552|    0.824272|    0.012006|
|        5493|   -6.460457|   -8.625394|    0.824272|    0.012006|
|        5494|   -6.460058|   -8.625144|    0.824272|    0.012006|
|        5495|   -6.459832|   -8.624804|    0.824272|    0.012006|
|        5496|   -6.459784|   -8.624377|    0.824272|    0.012006|
|        5497|   -6.459922|   -8.623864|    0.824272|    0.012006|
|        5498|   -6.460248|   -8.623269|    0.824272|    0.012005|
|        5499|   -6.460766|   -8.622595|    0.824272|    0.011991|
+-----------------------------------------------------------------------+
|Fixed CL Mode (Finite Difference)       |Value                         |
+-----------------------------------------------------------------------+
|Delta CL / Delta AoA                    |0.272016                      |
|Delta CD / Delta CL                     |0.0209786                     |
|Delta CMz / Delta CL                    |0.0304913                     |
+-----------------------------------------------------------------------+
Writing Flow Meta-Data file: flow.meta

----------------------------- Solver Exit -------------------------------

Maximum number of iterations reached (ITER = 5500) before convergence.
+-----------------------------------------------------------------------+
|      Convergence Field     |     Value    |   Criterion  |  Converged |
+-----------------------------------------------------------------------+
|                    rms[Rho]|      -6.46077|         < -12|          No|
+-----------------------------------------------------------------------+
-------------------------------------------------------------------------

--------------------------- Finalizing Solver ---------------------------
Deleted CNumerics container.
Deleted CIntegration container.
Deleted CSolver container.
Deleted CIteration container.
Deleted CInterface container.
Deleted CGeometry container.
Deleted CFreeFormDefBox class.
Deleted CSurfaceMovement class.
Deleted CVolumetricMovement class.
Deleted CConfig container.
Deleted nInst container.
Deleted COutput class.
-------------------------------------------------------------------------

------------------------- Exit Success (SU2_CFD) ------------------------


-------------------------------------------------------------------------
|    ___ _   _ ___                                                      |
|   / __| | | |_  )   Release 8.0.0 "Harrier"                           |
|   \__ \ |_| |/ /                                                      |
|   |___/\___//___|   Suite (Solution Exporting Code)                   |
|                                                                       |
-------------------------------------------------------------------------
| SU2 Project Website: https://su2code.github.io                        |
|                                                                       |
| The SU2 Project is maintained by the SU2 Foundation                   |
| (http://su2foundation.org)                                            |
-------------------------------------------------------------------------
| Copyright 2012-2023, SU2 Contributors                                 |
|                                                                       |
| SU2 is free software; you can redistribute it and/or                  |
| modify it under the terms of the GNU Lesser General Public            |
| License as published by the Free Software Foundation; either          |
| version 2.1 of the License, or (at your option) any later version.    |
|                                                                       |
| SU2 is distributed in the hope that it will be useful,                |
| but WITHOUT ANY WARRANTY; without even the implied warranty of        |
| MERCHANTABILITY or FITNESS FOR A PARTICULAR PURPOSE. See the GNU      |
| Lesser General Public License for more details.                       |
|                                                                       |
| You should have received a copy of the GNU Lesser General Public      |
| License along with SU2. If not, see <http://www.gnu.org/licenses/>.   |
-------------------------------------------------------------------------

----------------- Physical Case Definition ( Zone 0 ) -------------------
Input mesh file name: mesh_RAE2822_turb_deform.su2

-------------------- Output Information ( Zone 0 ) ----------------------
The tabular file format is CSV (.csv).
Flow variables file name: flow.

------------- Config File Boundary Information ( Zone 0 ) ---------------
+-----------------------------------------------------------------------+
|                        Marker Type|                        Marker Name|
+-----------------------------------------------------------------------+
|                          Far-field|                           FARFIELD|
+-----------------------------------------------------------------------+
|                     Heat flux wall|                            AIRFOIL|
+-----------------------------------------------------------------------+
Two dimensional problem.
13937 grid points before partitioning.
22842 volume elements before partitioning.
2 surface markers.
192 boundary elements in index 0 (Marker = AIRFOIL).
40 boundary elements in index 1 (Marker = FARFIELD).
Executing the partitioning functions.
Building the graph adjacency structure.
Calling ParMETIS... graph partitioning complete (831 edge cuts).
Distributing ParMETIS coloring.
Rebalancing vertices.
Rebalancing volume element connectivity.
Rebalancing markers and surface elements.
14875 vertices including ghost points. 
23674 interior elements including halo cells. 
18780 triangles.
4894 quadrilaterals.
Establishing MPI communication patterns.
Identify vertices.
Storing a mapping from global to local point index.

------------------------- Solution Postprocessing -----------------------
Reading and storing the solution from restart_flow.
Volume output fields: COORDINATES, SOLUTION
  Info: Ignoring the following screen output fields:
  RMS_DENSITY, RMS_NU_TILDE, LIFT, DRAG
Screen output fields: INNER_ITER
  Info: Ignoring the following history output groups:
  RMS_RES, AERO_COEFF
History output group(s): ITER
Warning: No (valid) fields chosen for convergence monitoring. Convergence monitoring inactive.
Warning: No (valid) fields chosen for time convergence monitoring. Time convergence monitoring inactive.
|Paraview                           |flow.vtu                           |
|Paraview surface                   |surface_flow.vtu                   |
|CSV file                           |surface_flow.csv                   |

------------------------- Finalize Solver -------------------------
Deleted CGeometry container.
Deleted CSolver class.
Deleted CConfig container.
Deleted COutput class.

Completed in 0.018673 seconds on 6 cores.

------------------------- Exit Success (SU2_SOL) ------------------------

