
-------------------------------------------------------------------------
|    ___ _   _ ___                                                      |
|   / __| | | |_  )   Release 8.0.0 "Harrier"                           |
|   \__ \ |_| |/ /                                                      |
|   |___/\___//___|   Suite (Computational Fluid Dynamics Code)         |
|                                                                       |
-------------------------------------------------------------------------
| SU2 Project Website: https://su2code.github.io                        |
|                                                                       |
| The SU2 Project is maintained by the SU2 Foundation                   |
| (http://su2foundation.org)                                            |
-------------------------------------------------------------------------
| Copyright 2012-2023, SU2 Contributors                                 |
|                                                                       |
| SU2 is free software; you can redistribute it and/or                  |
| modify it under the terms of the GNU Lesser General Public            |
| License as published by the Free Software Foundation; either          |
| version 2.1 of the License, or (at your option) any later version.    |
|                                                                       |
| SU2 is distributed in the hope that it will be useful,                |
| but WITHOUT ANY WARRANTY; without even the implied warranty of        |
| MERCHANTABILITY or FITNESS FOR A PARTICULAR PURPOSE. See the GNU      |
| Lesser General Public License for more details.                       |
|                                                                       |
| You should have received a copy of the GNU Lesser General Public      |
| License along with SU2. If not, see <http://www.gnu.org/licenses/>.   |
-------------------------------------------------------------------------

Parsing config file for zone 0

----------------- Physical Case Definition ( Zone 0 ) -------------------
Compressible RANS equations.
Turbulence model: Spalart-Allmaras-noft2
Hybrid RANS/LES: No Hybrid RANS/LES
Mach number: 0.734.
Angle of attack (AoA): 2.31 deg, and angle of sideslip (AoS): 0 deg.
Reynolds number: 6.5e+06. Reference length 1.
Fixed CL mode, target value: 0.824.
Reading and writing binary SU2 native restart files.
Read flow solution from: solution_flow.dat.
Dimensional simulation.
The reference area is 1 m^2.
The semi-span will be computed using the max y(3D) value.
The reference length is 1 m.
Reference origin for moment evaluation is (0.25, 0, 0).
Surface(s) where the force coefficients are evaluated: AIRFOIL.

Surface(s) plotted in the output file: AIRFOIL.
Surface(s) affected by the design variables: AIRFOIL.
Input mesh file name: mesh_RAE2822_turb_deform.su2

--------------- Space Numerical Integration ( Zone 0 ) ------------------
Jameson-Schmidt-Turkel scheme (2nd order in space) for the flow inviscid terms.
JST viscous coefficients (2nd & 4th): 0.5, 0.02.
The method includes a grid stretching correction (p = 0.3).
Scalar upwind solver for the turbulence model.
First order integration in space.
Average of gradients with correction (viscous flow terms).
Average of gradients with correction (viscous turbulence terms).
Gradient for viscous and source terms: inverse-distance weighted Least-Squares.

--------------- Time Numerical Integration  ( Zone 0 ) ------------------
Local time stepping (steady state simulation).
Euler implicit method for the flow equations.
FGMRES is used for solving the linear system.
Using a ILU(0) preconditioning.
Convergence criteria of the linear solver: 1e-06.
Max number of linear iterations: 10.
No CFL adaptation.
Courant-Friedrichs-Lewy number:       10
Euler implicit time integration for the turbulence model.

------------------ Convergence Criteria  ( Zone 0 ) ---------------------
Maximum number of solver subiterations: 5500.
Begin convergence monitoring at iteration 10.
Residual minimum value: 1e-12.
Cauchy series min. value: 1e-06.
Number of Cauchy elements: 100.
Begin windowed time average at iteration 0.

-------------------- Output Information ( Zone 0 ) ----------------------
File writing frequency: 
+------------------------------------+
|                     File| Frequency|
+------------------------------------+
|                  RESTART|     10000|
|                 PARAVIEW|     10000|
|         SURFACE_PARAVIEW|     10000|
|              SURFACE_CSV|     10000|
+------------------------------------+
Writing the convergence history file every 1 inner iterations.
Writing the screen convergence history every 1 inner iterations.
The tabular file format is CSV (.csv).
Convergence history file name: history_direct.
Forces breakdown file name: forces_breakdown.dat.
Surface file name: surface_flow.
Volume file name: flow.
Restart file name: restart_flow.dat.

------------- Config File Boundary Information ( Zone 0 ) ---------------
+-----------------------------------------------------------------------+
|                        Marker Type|                        Marker Name|
+-----------------------------------------------------------------------+
|                          Far-field|                           FARFIELD|
+-----------------------------------------------------------------------+
|                     Heat flux wall|                            AIRFOIL|
+-----------------------------------------------------------------------+

-------------------- Output Preprocessing ( Zone 0 ) --------------------

WARNING: SURFACE_PRESSURE_DROP can only be computed for at least 2 surfaces (outlet, inlet, ...)

Screen output fields: INNER_ITER, RMS_DENSITY, RMS_NU_TILDE, LIFT, DRAG
History output group(s): ITER, RMS_RES, AERO_COEFF
Convergence field(s): RMS_DENSITY
Warning: No (valid) fields chosen for time convergence monitoring. Time convergence monitoring inactive.
Volume output fields: COORDINATES, SOLUTION, PRIMITIVE

------------------- Geometry Preprocessing ( Zone 0 ) -------------------
Two dimensional problem.
13937 grid points before partitioning.
22842 volume elements before partitioning.
2 surface markers.
192 boundary elements in index 0 (Marker = AIRFOIL).
40 boundary elements in index 1 (Marker = FARFIELD).
Executing the partitioning functions.
Building the graph adjacency structure.
Calling ParMETIS... graph partitioning complete (831 edge cuts).
Distributing ParMETIS coloring.
Rebalancing vertices.
Rebalancing volume element connectivity.
Rebalancing markers and surface elements.
14875 vertices including ghost points. 
23674 interior elements including halo cells. 
18780 triangles.
4894 quadrilaterals.
Establishing MPI communication patterns.
Setting point connectivity.
Renumbering points (Reverse Cuthill McKee Ordering).
Recomputing point connectivity.
Setting element connectivity.
Checking the numerical grid orientation.
All volume elements are correctly orientend.
All surface elements are correctly orientend.
Identifying edges and vertices.
Setting the control volume structure.
Area of the computational grid: 32209.9.
Searching for the closest normal neighbors to the surfaces.
Storing a mapping from global to local point index.
Compute the surface curvature.
Max K: 188.485. Mean K: 8.08276. Standard deviation K: 25.4363.
Checking for periodicity.
Computing mesh quality statistics for the dual control volumes.
+--------------------------------------------------------------+
|           Mesh Quality Metric|        Minimum|        Maximum|
+--------------------------------------------------------------+
|    Orthogonality Angle (deg.)|        74.8765|        89.9999|
|     CV Face Area Aspect Ratio|        1.00519|        3358.36|
|           CV Sub-Volume Ratio|        1.00047|        1217.97|
+--------------------------------------------------------------+
Finding max control volume width.
Communicating number of neighbors.
Wetted area = 2.02145 m.
Area projection in the x-plane = 0.126191 m, y-plane = 0.995873 m.
Max. coordinate in the x-direction = 1 m, y-direction = 0.0619973 m.
Min. coordinate in the x-direction = 0 m, y-direction = -0.0607897 m.
Computing wall distances.

-------------------- Solver Preprocessing ( Zone 0 ) --------------------
WARNING: AoA in the solution file (2.78026 deg.) +
         AoA offset in mesh file (0 deg.) = 2.78026 deg.
WARNING: SU2 will use the dCD/dCL provided in the direct solution file: 0.0182702.
WARNING: SU2 will use the dCMz/dCL provided in the direct solution file: 0.00709353.
Viscous flow: Computing pressure using the ideal gas law
based on the free-stream temperature and a density computed
from the Reynolds number.
Force coefficients computed using free-stream values.

-- Models:
+------------------------------------------------------------------------------+
|          Viscosity Model|        Conductivity Model|              Fluid Model|
+------------------------------------------------------------------------------+
|               SUTHERLAND|          CONSTANT_PRANDTL|             STANDARD_AIR|
+------------------------------------------------------------------------------+
-- Fluid properties:
+------------------------------------------------------------------------------+
|                  Name|    Dim. value|    Ref. value|      Unit|Non-dim. value|
+------------------------------------------------------------------------------+
|        Ref. Viscosity|     1.716e-05|             1|   N.s/m^2|     1.716e-05|
|      Sutherland Temp.|        273.15|             1|         K|        273.15|
|     Sutherland Const.|         110.4|             1|         K|         110.4|
+------------------------------------------------------------------------------+
|        Prandtl (Lam.)|             -|             -|         -|          0.71|
|       Prandtl (Turb.)|             -|             -|         -|           0.9|
+------------------------------------------------------------------------------+
|          Gas Constant|       287.058|             1|  N.m/kg.K|       287.058|
|      Spec. Heat Ratio|             -|             -|         -|           1.4|
+------------------------------------------------------------------------------+
-- Initial and free-stream conditions:
+------------------------------------------------------------------------------+
|                  Name|    Dim. value|    Ref. value|      Unit|Non-dim. value|
+------------------------------------------------------------------------------+
|       Static Pressure|         38515|             1|        Pa|         38515|
|               Density|      0.465631|             1|    kg/m^3|      0.465631|
|           Temperature|        288.15|             1|         K|        288.15|
|          Total Energy|        237984|             1|   m^2/s^2|        237984|
|            Velocity-X|       249.484|             1|       m/s|       249.484|
|            Velocity-Y|       12.1157|             1|       m/s|       12.1157|
|    Velocity Magnitude|       249.778|             1|       m/s|       249.778|
+------------------------------------------------------------------------------+
|             Viscosity|    1.7893e-05|             1|   N.s/m^2|    1.7893e-05|
|          Conductivity|             -|             1|   W/m^2.K|             -|
|     Turb. Kin. Energy|       233.959|             1|   m^2/s^2|       233.959|
|     Spec. Dissipation|        608834|             1|       1/s|        608834|
+------------------------------------------------------------------------------+
|           Mach Number|             -|             -|         -|         0.734|
|       Reynolds Number|             -|             -|         -|       6.5e+06|
+------------------------------------------------------------------------------+
Initialize Jacobian structure (Navier-Stokes). MG level: 0.
Initialize Jacobian structure (SA model).

------------------- Numerics Preprocessing ( Zone 0 ) -------------------

----------------- Integration Preprocessing ( Zone 0 ) ------------------

------------------- Iteration Preprocessing ( Zone 0 ) ------------------
Euler/Navier-Stokes/RANS fluid iteration.

------------------------------ Begin Solver -----------------------------

Simulation Run using the Single-zone Driver
WARNING: SU2 was not compiled for an AVX-capable architecture. Performance could be better,
         see https://su2code.github.io/docs_v7/Build-SU2-Linux-MacOS/#compiler-optimizations
+----------------------------------------------------------------+
|  Inner_Iter|    rms[Rho]|     rms[nu]|          CL|          CD|
+----------------------------------------------------------------+
|           0|   -5.238762|   -6.554429|    0.823957|    0.012034|
|           1|   -5.296807|   -6.660849|    0.823933|    0.012028|
|           2|   -5.358625|   -6.782736|    0.823922|    0.012024|
|           3|   -5.404024|   -6.916765|    0.823921|    0.012022|
|           4|   -5.433734|   -7.057650|    0.823923|    0.012022|
|           5|   -5.452152|   -7.180174|    0.823927|    0.012022|
|           6|   -5.461570|   -7.236321|    0.823928|    0.012022|
|           7|   -5.463274|   -7.223677|    0.823928|    0.012022|
|           8|   -5.458772|   -7.190321|    0.823927|    0.012021|
|           9|   -5.449739|   -7.163311|    0.823924|    0.012020|
|          10|   -5.437762|   -7.146061|    0.823920|    0.012018|
|          11|   -5.424353|   -7.134777|    0.823917|    0.012015|
|          12|   -5.410905|   -7.126007|    0.823913|    0.012013|
|          13|   -5.398479|   -7.118877|    0.823910|    0.012009|
|          14|   -5.387620|   -7.114535|    0.823907|    0.012006|
|          15|   -5.378375|   -7.114448|    0.823905|    0.012002|
|          16|   -5.370488|   -7.118989|    0.823904|    0.011999|
|          17|   -5.363646|   -7.126801|    0.823904|    0.011995|
|          18|   -5.357662|   -7.134891|    0.823905|    0.011991|
|          19|   -5.352528|   -7.139475|    0.823907|    0.011988|
|          20|   -5.348343|   -7.137528|    0.823910|    0.011984|
|          21|   -5.345204|   -7.128296|    0.823915|    0.011981|
|          22|   -5.343121|   -7.113548|    0.823920|    0.011978|
|          23|   -5.341998|   -7.096393|    0.823925|    0.011976|
|          24|   -5.341662|   -7.079803|    0.823931|    0.011974|
|          25|   -5.341916|   -7.065805|    0.823938|    0.011972|
|          26|   -5.342571|   -7.055374|    0.823944|    0.011971|
|          27|   -5.343457|   -7.048673|    0.823950|    0.011970|
|          28|   -5.344422|   -7.045362|    0.823956|    0.011969|
|          29|   -5.345318|   -7.044863|    0.823961|    0.011969|
|          30|   -5.346008|   -7.046560|    0.823966|    0.011968|
|          31|   -5.346370|   -7.049919|    0.823971|    0.011969|
|          32|   -5.346318|   -7.054539|    0.823975|    0.011969|
|          33|   -5.345803|   -7.060131|    0.823979|    0.011969|
|          34|   -5.344825|   -7.066475|    0.823982|    0.011970|
|          35|   -5.343419|   -7.073360|    0.823986|    0.011971|
|          36|   -5.341647|   -7.080534|    0.823989|    0.011972|
|          37|   -5.339584|   -7.087692|    0.823992|    0.011972|
|          38|   -5.337304|   -7.094487|    0.823996|    0.011973|
|          39|   -5.334875|   -7.100562|    0.823999|    0.011975|
|          40|   -5.332351|   -7.105609|    0.824003|    0.011976|
|          41|   -5.329770|   -7.109411|    0.824007|    0.011977|
|          42|   -5.327157|   -7.111883|    0.824011|    0.011978|
|          43|   -5.324526|   -7.113093|    0.824016|    0.011979|
|          44|   -5.321881|   -7.113252|    0.824021|    0.011980|
|          45|   -5.319215|   -7.112689|    0.824026|    0.011982|
|          46|   -5.316515|   -7.111803|    0.824030|    0.011983|
|          47|   -5.313756|   -7.111004|    0.824035|    0.011985|
|          48|   -5.310905|   -7.110671|    0.824040|    0.011986|
|          49|   -5.307919|   -7.111108|    0.824045|    0.011987|
|          50|   -5.304754|   -7.112506|    0.824049|    0.011989|
|          51|   -5.301368|   -7.114936|    0.824052|    0.011990|
|          52|   -5.297732|   -7.118332|    0.824055|    0.011992|
|          53|   -5.293830|   -7.122513|    0.824057|    0.011993|
|          54|   -5.289666|   -7.127202|    0.824059|    0.011995|
|          55|   -5.285262|   -7.132074|    0.824060|    0.011996|
|          56|   -5.280660|   -7.136812|    0.824060|    0.011998|
|          57|   -5.275911|   -7.141160|    0.824059|    0.011999|
|          58|   -5.271076|   -7.144967|    0.824058|    0.012001|
|          59|   -5.266214|   -7.148202|    0.824055|    0.012002|
|          60|   -5.261383|   -7.150937|    0.824052|    0.012003|
|          61|   -5.256631|   -7.153306|    0.824049|    0.012005|
|          62|   -5.251996|   -7.155448|    0.824045|    0.012006|
|          63|   -5.247508|   -7.157462|    0.824041|    0.012007|
|          64|   -5.243185|   -7.159376|    0.824036|    0.012008|
|          65|   -5.239036|   -7.161146|    0.824031|    0.012009|
|          66|   -5.235067|   -7.162675|    0.824026|    0.012010|
|          67|   -5.231277|   -7.163852|    0.824022|    0.012011|
|          68|   -5.227663|   -7.164598|    0.824017|    0.012012|
|          69|   -5.224223|   -7.164905|    0.824012|    0.012013|
|          70|   -5.220957|   -7.164855|    0.824008|    0.012014|
|          71|   -5.217866|   -7.164613|    0.824004|    0.012015|
|          72|   -5.214954|   -7.164398|    0.824000|    0.012015|
|          73|   -5.212227|   -7.164448|    0.823996|    0.012016|
|          74|   -5.209691|   -7.164975|    0.823993|    0.012017|
|          75|   -5.207351|   -7.166140|    0.823990|    0.012017|
|          76|   -5.205208|   -7.168027|    0.823987|    0.012018|
|          77|   -5.203259|   -7.170643|    0.823985|    0.012019|
|          78|   -5.201496|   -7.173925|    0.823982|    0.012019|
|          79|   -5.199902|   -7.177754|    0.823980|    0.012020|
|          80|   -5.198458|   -7.181984|    0.823978|    0.012020|
|          81|   -5.197142|   -7.186458|    0.823976|    0.012021|
|          82|   -5.195928|   -7.191040|    0.823975|    0.012021|
|          83|   -5.194796|   -7.195624|    0.823973|    0.012021|
|          84|   -5.193725|   -7.200144|    0.823972|    0.012021|
|          85|   -5.192705|   -7.204571|    0.823970|    0.012022|
|          86|   -5.191731|   -7.208910|    0.823969|    0.012022|
|          87|   -5.190808|   -7.213181|    0.823968|    0.012022|
|          88|   -5.189948|   -7.217410|    0.823966|    0.012022|
|          89|   -5.189174|   -7.221616|    0.823965|    0.012022|
|          90|   -5.188510|   -7.225806|    0.823964|    0.012022|
|          91|   -5.187988|   -7.229969|    0.823963|    0.012022|
|          92|   -5.187641|   -7.234077|    0.823962|    0.012022|
|          93|   -5.187501|   -7.238094|    0.823961|    0.012022|
|          94|   -5.187600|   -7.241973|    0.823960|    0.012022|
|          95|   -5.187965|   -7.245671|    0.823958|    0.012022|
|          96|   -5.188618|   -7.249151|    0.823957|    0.012022|
|          97|   -5.189576|   -7.252384|    0.823956|    0.012021|
|          98|   -5.190847|   -7.255357|    0.823954|    0.012021|
|          99|   -5.192431|   -7.258069|    0.823953|    0.012021|
|         100|   -5.194317|   -7.260532|    0.823951|    0.012020|
|         101|   -5.196487|   -7.262770|    0.823949|    0.012023|
+-----------------------------------------------------------------------+
|Fixed CL Mode                           |Value                         |
+-----------------------------------------------------------------------+
|Current CL                              |0.823949                      |
|Target CL                               |0.824                         |
|Previous AOA                            |2.78026                       |
|Changed AoA by                          |0.000245705                   |
+-----------------------------------------------------------------------+
+----------------------------------------------------------------+
|  Inner_Iter|    rms[Rho]|     rms[nu]|          CL|          CD|
+----------------------------------------------------------------+
|         102|   -3.802330|   -7.253271|    0.823947|    0.012023|
|         103|   -4.181916|   -7.260762|    0.823945|    0.012022|
|         104|   -4.414405|   -7.264208|    0.823943|    0.012021|
|         105|   -4.489079|   -7.266813|    0.823941|    0.012021|
|         106|   -4.542430|   -7.269084|    0.823939|    0.012020|
|         107|   -4.611376|   -7.271162|    0.823937|    0.012019|
|         108|   -4.695574|   -7.273113|    0.823935|    0.012018|
|         109|   -4.782702|   -7.274979|    0.823933|    0.012018|
|         110|   -4.857311|   -7.276789|    0.823931|    0.012017|
|         111|   -4.911427|   -7.278557|    0.823929|    0.012016|
|         112|   -4.946022|   -7.280288|    0.823927|    0.012015|
|         113|   -4.964443|   -7.281991|    0.823925|    0.012014|
|         114|   -4.970607|   -7.283677|    0.823923|    0.012013|
|         115|   -4.970339|   -7.285350|    0.823922|    0.012012|
|         116|   -4.969817|   -7.287004|    0.823921|    0.012012|
|         117|   -4.972924|   -7.288625|    0.823919|    0.012011|
|         118|   -4.980365|   -7.290203|    0.823918|    0.012010|
|         119|   -4.990447|   -7.291729|    0.823917|    0.012009|
|         120|   -5.000585|   -7.293200|    0.823917|    0.012008|
|         121|   -5.008841|   -7.294611|    0.823916|    0.012008|
|         122|   -5.014718|   -7.295961|    0.823916|    0.012007|
|         123|   -5.018875|   -7.297247|    0.823915|    0.012006|
|         124|   -5.022269|   -7.298462|    0.823915|    0.012006|
|         125|   -5.025511|   -7.299607|    0.823915|    0.012005|
|         126|   -5.028749|   -7.300680|    0.823915|    0.012005|
|         127|   -5.031862|   -7.301686|    0.823915|    0.012004|
|         128|   -5.034688|   -7.302632|    0.823915|    0.012004|
|         129|   -5.037124|   -7.303525|    0.823915|    0.012003|
|         130|   -5.039137|   -7.304375|    0.823915|    0.012003|
|         131|   -5.040751|   -7.305190|    0.823915|    0.012002|
|         132|   -5.042054|   -7.305981|    0.823916|    0.012002|
|         133|   -5.043208|   -7.306755|    0.823916|    0.012001|
|         134|   -5.044429|   -7.307519|    0.823916|    0.012001|
|         135|   -5.045937|   -7.308278|    0.823916|    0.012001|
|         136|   -5.047898|   -7.309034|    0.823916|    0.012000|
|         137|   -5.050385|   -7.309790|    0.823916|    0.012000|
|         138|   -5.053361|   -7.310548|    0.823916|    0.011999|
|         139|   -5.056685|   -7.311309|    0.823917|    0.011999|
|         140|   -5.060142|   -7.312074|    0.823917|    0.011999|
|         141|   -5.063480|   -7.312846|    0.823917|    0.011998|
|         142|   -5.066466|   -7.313627|    0.823917|    0.011998|
|         143|   -5.068933|   -7.314424|    0.823917|    0.011998|
|         144|   -5.070820|   -7.315244|    0.823917|    0.011998|
|         145|   -5.072178|   -7.316099|    0.823917|    0.011997|
|         146|   -5.073150|   -7.316998|    0.823918|    0.011997|
|         147|   -5.073918|   -7.317956|    0.823918|    0.011997|
|         148|   -5.074659|   -7.318987|    0.823919|    0.011997|
|         149|   -5.075497|   -7.320107|    0.823919|    0.011997|
|         150|   -5.076488|   -7.321331|    0.823920|    0.011996|
|         151|   -5.077616|   -7.322675|    0.823921|    0.011996|
|         152|   -5.078813|   -7.324152|    0.823922|    0.011996|
|         153|   -5.079986|   -7.325777|    0.823924|    0.011996|
|         154|   -5.081036|   -7.327564|    0.823925|    0.011996|
|         155|   -5.081888|   -7.329522|    0.823927|    0.011996|
|         156|   -5.082496|   -7.331658|    0.823929|    0.011996|
|         157|   -5.082851|   -7.333976|    0.823931|    0.011996|
|         158|   -5.082973|   -7.336478|    0.823933|    0.011996|
|         159|   -5.082901|   -7.339159|    0.823935|    0.011997|
|         160|   -5.082681|   -7.342013|    0.823937|    0.011997|
|         161|   -5.082362|   -7.345027|    0.823940|    0.011997|
|         162|   -5.081983|   -7.348188|    0.823942|    0.011997|
|         163|   -5.081576|   -7.351478|    0.823945|    0.011998|
|         164|   -5.081167|   -7.354877|    0.823948|    0.011998|
|         165|   -5.080774|   -7.358364|    0.823951|    0.011998|
|         166|   -5.080412|   -7.361916|    0.823954|    0.011999|
|         167|   -5.080094|   -7.365512|    0.823957|    0.011999|
|         168|   -5.079833|   -7.369128|    0.823959|    0.012000|
|         169|   -5.079640|   -7.372745|    0.823962|    0.012000|
|         170|   -5.079521|   -7.376345|    0.823965|    0.012001|
|         171|   -5.079482|   -7.379914|    0.823968|    0.012001|
|         172|   -5.079523|   -7.383440|    0.823970|    0.012001|
|         173|   -5.079639|   -7.386914|    0.823973|    0.012002|
|         174|   -5.079824|   -7.390333|    0.823975|    0.012003|
|         175|   -5.080065|   -7.393697|    0.823977|    0.012003|
|         176|   -5.080349|   -7.397011|    0.823979|    0.012004|
|         177|   -5.080665|   -7.400281|    0.823981|    0.012004|
|         178|   -5.081001|   -7.403518|    0.823982|    0.012005|
|         179|   -5.081348|   -7.406737|    0.823984|    0.012005|
|         180|   -5.081703|   -7.409951|    0.823985|    0.012006|
|         181|   -5.082066|   -7.413179|    0.823986|    0.012006|
|         182|   -5.082445|   -7.416436|    0.823987|    0.012007|
|         183|   -5.082856|   -7.419741|    0.823987|    0.012007|
|         184|   -5.083317|   -7.423111|    0.823987|    0.012008|
|         185|   -5.083858|   -7.426562|    0.823988|    0.012008|
|         186|   -5.084510|   -7.430109|    0.823987|    0.012009|
|         187|   -5.085311|   -7.433767|    0.823987|    0.012009|
|         188|   -5.086304|   -7.437548|    0.823987|    0.012010|
|         189|   -5.087532|   -7.441462|    0.823986|    0.012010|
|         190|   -5.089039|   -7.445517|    0.823985|    0.012011|
|         191|   -5.090870|   -7.449719|    0.823985|    0.012011|
|         192|   -5.093063|   -7.454072|    0.823984|    0.012011|
|         193|   -5.095658|   -7.458577|    0.823982|    0.012012|
|         194|   -5.098684|   -7.463234|    0.823981|    0.012012|
|         195|   -5.102164|   -7.468040|    0.823980|    0.012013|
|         196|   -5.106113|   -7.472990|    0.823978|    0.012013|
|         197|   -5.110536|   -7.478079|    0.823977|    0.012014|
|         198|   -5.115424|   -7.483300|    0.823975|    0.012014|
|         199|   -5.120758|   -7.488643|    0.823974|    0.012015|
|         200|   -5.126504|   -7.494099|    0.823972|    0.012015|
|         201|   -5.132615|   -7.499657|    0.823970|    0.012017|
+-----------------------------------------------------------------------+
|Fixed CL Mode                           |Value                         |
+-----------------------------------------------------------------------+
|Current CL                              |0.82397                       |
|Target CL                               |0.824                         |
|Previous AOA                            |2.78051                       |
|Changed AoA by                          |0.000140396                   |
+-----------------------------------------------------------------------+
+----------------------------------------------------------------+
|  Inner_Iter|    rms[Rho]|     rms[nu]|          CL|          CD|
+----------------------------------------------------------------+
|         202|   -4.044738|   -7.493334|    0.823968|    0.012018|
|         203|   -4.421698|   -7.504389|    0.823967|    0.012018|
|         204|   -4.644738|   -7.511699|    0.823965|    0.012019|
|         205|   -4.710264|   -7.518401|    0.823963|    0.012019|
|         206|   -4.755615|   -7.524974|    0.823961|    0.012019|
|         207|   -4.814462|   -7.531522|    0.823960|    0.012019|
|         208|   -4.884251|   -7.538073|    0.823958|    0.012020|
|         209|   -4.952595|   -7.544638|    0.823956|    0.012020|
|         210|   -5.007608|   -7.551215|    0.823954|    0.012020|
|         211|   -5.046004|   -7.557785|    0.823953|    0.012021|
|         212|   -5.070984|   -7.564332|    0.823951|    0.012021|
|         213|   -5.086072|   -7.570854|    0.823950|    0.012021|
|         214|   -5.093956|   -7.577367|    0.823948|    0.012021|
|         215|   -5.097805|   -7.583888|    0.823947|    0.012021|
|         216|   -5.101013|   -7.590431|    0.823945|    0.012021|
|         217|   -5.105897|   -7.597006|    0.823944|    0.012021|
|         218|   -5.113012|   -7.603624|    0.823943|    0.012021|
|         219|   -5.121512|   -7.610300|    0.823941|    0.012021|
|         220|   -5.130070|   -7.617051|    0.823940|    0.012021|
|         221|   -5.137784|   -7.623889|    0.823939|    0.012021|
|         222|   -5.144558|   -7.630820|    0.823938|    0.012021|
|         223|   -5.150867|   -7.637839|    0.823937|    0.012021|
|         224|   -5.157259|   -7.644937|    0.823937|    0.012021|
|         225|   -5.164011|   -7.652100|    0.823936|    0.012021|
|         226|   -5.171090|   -7.659313|    0.823935|    0.012021|
|         227|   -5.178302|   -7.666558|    0.823935|    0.012021|
|         228|   -5.185458|   -7.673818|    0.823934|    0.012020|
|         229|   -5.192465|   -7.681072|    0.823934|    0.012020|
|         230|   -5.199335|   -7.688303|    0.823934|    0.012020|
|         231|   -5.206175|   -7.695489|    0.823934|    0.012020|
|         232|   -5.213163|   -7.702609|    0.823933|    0.012019|
|         233|   -5.220538|   -7.709644|    0.823933|    0.012019|
|         234|   -5.228564|   -7.716570|    0.823933|    0.012019|
|         235|   -5.237485|   -7.723362|    0.823933|    0.012018|
|         236|   -5.247475|   -7.729995|    0.823934|    0.012018|
|         237|   -5.258608|   -7.736440|    0.823934|    0.012018|
|         238|   -5.270834|   -7.742669|    0.823934|    0.012017|
|         239|   -5.283985|   -7.748654|    0.823934|    0.012017|
|         240|   -5.297787|   -7.754368|    0.823935|    0.012017|
|         241|   -5.311885|   -7.759787|    0.823935|    0.012016|
|         242|   -5.325896|   -7.764889|    0.823935|    0.012016|
|         243|   -5.339465|   -7.769655|    0.823936|    0.012015|
|         244|   -5.352329|   -7.774071|    0.823936|    0.012015|
|         245|   -5.364354|   -7.778125|    0.823937|    0.012015|
|         246|   -5.375548|   -7.781804|    0.823938|    0.012014|
|         247|   -5.386016|   -7.785105|    0.823938|    0.012014|
|         248|   -5.395909|   -7.788026|    0.823939|    0.012013|
|         249|   -5.405358|   -7.790569|    0.823940|    0.012013|
|         250|   -5.414428|   -7.792743|    0.823940|    0.012013|
|         251|   -5.423101|   -7.794560|    0.823941|    0.012012|
|         252|   -5.431285|   -7.796039|    0.823942|    0.012012|
|         253|   -5.438849|   -7.797204|    0.823943|    0.012012|
|         254|   -5.445655|   -7.798085|    0.823944|    0.012011|
|         255|   -5.451610|   -7.798720|    0.823945|    0.012011|
|         256|   -5.456678|   -7.799151|    0.823946|    0.012011|
|         257|   -5.460899|   -7.799423|    0.823947|    0.012010|
|         258|   -5.464374|   -7.799587|    0.823948|    0.012010|
|         259|   -5.467242|   -7.799696|    0.823949|    0.012010|
|         260|   -5.469660|   -7.799804|    0.823951|    0.012010|
|         261|   -5.471776|   -7.799966|    0.823952|    0.012009|
|         262|   -5.473718|   -7.800235|    0.823953|    0.012009|
|         263|   -5.475587|   -7.800663|    0.823955|    0.012009|
|         264|   -5.477455|   -7.801298|    0.823956|    0.012009|
|         265|   -5.479376|   -7.802182|    0.823958|    0.012008|
|         266|   -5.481390|   -7.803352|    0.823960|    0.012008|
|         267|   -5.483527|   -7.804837|    0.823961|    0.012008|
|         268|   -5.485812|   -7.806658|    0.823963|    0.012008|
|         269|   -5.488268|   -7.808827|    0.823965|    0.012008|
|         270|   -5.490914|   -7.811345|    0.823967|    0.012008|
|         271|   -5.493767|   -7.814200|    0.823969|    0.012008|
|         272|   -5.496839|   -7.817367|    0.823970|    0.012008|
|         273|   -5.500135|   -7.820808|    0.823972|    0.012008|
|         274|   -5.503655|   -7.824470|    0.823974|    0.012008|
|         275|   -5.507394|   -7.828289|    0.823976|    0.012008|
|         276|   -5.511343|   -7.832184|    0.823978|    0.012008|
|         277|   -5.515490|   -7.836064|    0.823980|    0.012008|
|         278|   -5.519817|   -7.839831|    0.823982|    0.012008|
|         279|   -5.524310|   -7.843380|    0.823984|    0.012008|
|         280|   -5.528950|   -7.846607|    0.823985|    0.012008|
|         281|   -5.533720|   -7.849409|    0.823987|    0.012008|
|         282|   -5.538602|   -7.851700|    0.823988|    0.012009|
|         283|   -5.543578|   -7.853407|    0.823990|    0.012009|
|         284|   -5.548630|   -7.854484|    0.823991|    0.012009|
|         285|   -5.553741|   -7.854910|    0.823993|    0.012009|
|         286|   -5.558891|   -7.854694|    0.823994|    0.012009|
|         287|   -5.564064|   -7.853873|    0.823995|    0.012010|
|         288|   -5.569241|   -7.852515|    0.823996|    0.012010|
|         289|   -5.574404|   -7.850709|    0.823997|    0.012010|
|         290|   -5.579536|   -7.848565|    0.823998|    0.012010|
|         291|   -5.584619|   -7.846202|    0.823999|    0.012011|
|         292|   -5.589637|   -7.843750|    0.823999|    0.012011|
|         293|   -5.594575|   -7.841337|    0.824000|    0.012011|
|         294|   -5.599421|   -7.839088|    0.824000|    0.012012|
|         295|   -5.604163|   -7.837121|    0.824001|    0.012012|
|         296|   -5.608792|   -7.835544|    0.824001|    0.012012|
|         297|   -5.613303|   -7.834450|    0.824001|    0.012012|
|         298|   -5.617691|   -7.833921|    0.824001|    0.012013|
|         299|   -5.621957|   -7.834021|    0.824001|    0.012013|
|         300|   -5.626104|   -7.834803|    0.824001|    0.012013|
|         301|   -5.630135|   -7.836303|    0.824001|    0.012014|
+-----------------------------------------------------------------------+
|Fixed CL Mode                           |Value                         |
+-----------------------------------------------------------------------+
|Current CL                              |0.824001                      |
|Target CL                               |0.824                         |
|Previous AOA                            |2.78065                       |
|Changed AoA by                          |-5.88059e-06                  |
+-----------------------------------------------------------------------+
+----------------------------------------------------------------+
|  Inner_Iter|    rms[Rho]|     rms[nu]|          CL|          CD|
+----------------------------------------------------------------+
|         302|   -5.355163|   -7.838544|    0.824001|    0.012014|
|         303|   -5.566757|   -7.841557|    0.824000|    0.012014|
|         304|   -5.630797|   -7.845273|    0.824000|    0.012014|
|         305|   -5.645426|   -7.849697|    0.824000|    0.012015|
|         306|   -5.651738|   -7.854797|    0.823999|    0.012015|
|         307|   -5.656208|   -7.860525|    0.823999|    0.012015|
|         308|   -5.659650|   -7.866812|    0.823998|    0.012016|
|         309|   -5.662109|   -7.873582|    0.823998|    0.012016|
|         310|   -5.663879|   -7.880744|    0.823997|    0.012016|
|         311|   -5.665441|   -7.888196|    0.823996|    0.012016|
|         312|   -5.667143|   -7.895833|    0.823996|    0.012016|
|         313|   -5.669133|   -7.903542|    0.823995|    0.012017|
|         314|   -5.671448|   -7.911211|    0.823994|    0.012017|
|         315|   -5.674087|   -7.918729|    0.823994|    0.012017|
|         316|   -5.677017|   -7.925995|    0.823993|    0.012017|
|         317|   -5.680162|   -7.932920|    0.823992|    0.012017|
|         318|   -5.683392|   -7.939430|    0.823992|    0.012018|
|         319|   -5.686556|   -7.945476|    0.823991|    0.012018|
|         320|   -5.689520|   -7.951029|    0.823991|    0.012018|
|         321|   -5.692200|   -7.956088|    0.823990|    0.012018|
|         322|   -5.694568|   -7.960676|    0.823989|    0.012018|
|         323|   -5.696640|   -7.964841|    0.823989|    0.012018|
|         324|   -5.698454|   -7.968648|    0.823988|    0.012018|
|         325|   -5.700046|   -7.972177|    0.823988|    0.012018|
|         326|   -5.701442|   -7.975519|    0.823987|    0.012018|
|         327|   -5.702651|   -7.978771|    0.823987|    0.012018|
|         328|   -5.703670|   -7.982030|    0.823986|    0.012018|
|         329|   -5.704489|   -7.985388|    0.823986|    0.012018|
|         330|   -5.705093|   -7.988930|    0.823985|    0.012018|
|         331|   -5.705469|   -7.992732|    0.823985|    0.012018|
|         332|   -5.705615|   -7.996858|    0.823985|    0.012018|
|         333|   -5.705540|   -8.001362|    0.823984|    0.012018|
|         334|   -5.705265|   -8.006284|    0.823984|    0.012018|
|         335|   -5.704823|   -8.011649|    0.823984|    0.012018|
|         336|   -5.704252|   -8.017470|    0.823983|    0.012018|
|         337|   -5.703594|   -8.023746|    0.823983|    0.012018|
|         338|   -5.702890|   -8.030464|    0.823983|    0.012017|
|         339|   -5.702178|   -8.037597|    0.823982|    0.012017|
|         340|   -5.701493|   -8.045108|    0.823982|    0.012017|
|         341|   -5.700866|   -8.052948|    0.823982|    0.012017|
|         342|   -5.700324|   -8.061058|    0.823982|    0.012017|
|         343|   -5.699895|   -8.069369|    0.823981|    0.012017|
|         344|   -5.699602|   -8.077808|    0.823981|    0.012016|
|         345|   -5.699471|   -8.086291|    0.823981|    0.012016|
|         346|   -5.699526|   -8.094734|    0.823980|    0.012016|
|         347|   -5.699790|   -8.103049|    0.823980|    0.012016|
|         348|   -5.700287|   -8.111151|    0.823980|    0.012016|
|         349|   -5.701036|   -8.118956|    0.823980|    0.012015|
|         350|   -5.702055|   -8.126385|    0.823979|    0.012015|
|         351|   -5.703357|   -8.133366|    0.823979|    0.012015|
|         352|   -5.704954|   -8.139837|    0.823979|    0.012015|
|         353|   -5.706855|   -8.145751|    0.823979|    0.012015|
|         354|   -5.709063|   -8.151071|    0.823979|    0.012014|
|         355|   -5.711581|   -8.155774|    0.823978|    0.012014|
|         356|   -5.714410|   -8.159851|    0.823978|    0.012014|
|         357|   -5.717545|   -8.163304|    0.823978|    0.012014|
|         358|   -5.720982|   -8.166150|    0.823978|    0.012013|
|         359|   -5.724710|   -8.168414|    0.823978|    0.012013|
|         360|   -5.728720|   -8.170135|    0.823978|    0.012013|
|         361|   -5.732995|   -8.171359|    0.823978|    0.012013|
|         362|   -5.737519|   -8.172133|    0.823978|    0.012013|
|         363|   -5.742270|   -8.172516|    0.823978|    0.012012|
|         364|   -5.747224|   -8.172574|    0.823978|    0.012012|
|         365|   -5.752354|   -8.172372|    0.823978|    0.012012|
|         366|   -5.757629|   -8.171979|    0.823978|    0.012012|
|         367|   -5.763016|   -8.171465|    0.823978|    0.012012|
|         368|   -5.768479|   -8.170898|    0.823978|    0.012011|
|         369|   -5.773980|   -8.170345|    0.823978|    0.012011|
|         370|   -5.779479|   -8.169871|    0.823979|    0.012011|
|         371|   -5.784935|   -8.169534|    0.823979|    0.012011|
|         372|   -5.790306|   -8.169392|    0.823979|    0.012011|
|         373|   -5.795549|   -8.169497|    0.823980|    0.012011|
|         374|   -5.800625|   -8.169896|    0.823980|    0.012011|
|         375|   -5.805493|   -8.170629|    0.823981|    0.012010|
|         376|   -5.810118|   -8.171727|    0.823981|    0.012010|
|         377|   -5.814467|   -8.173214|    0.823982|    0.012010|
|         378|   -5.818513|   -8.175104|    0.823982|    0.012010|
|         379|   -5.822232|   -8.177402|    0.823983|    0.012010|
|         380|   -5.825607|   -8.180101|    0.823983|    0.012010|
|         381|   -5.828629|   -8.183184|    0.823984|    0.012010|
|         382|   -5.831293|   -8.186620|    0.823985|    0.012010|
|         383|   -5.833602|   -8.190370|    0.823985|    0.012010|
|         384|   -5.835564|   -8.194381|    0.823986|    0.012010|
|         385|   -5.837193|   -8.198588|    0.823987|    0.012010|
|         386|   -5.838509|   -8.202917|    0.823988|    0.012010|
|         387|   -5.839535|   -8.207287|    0.823988|    0.012010|
|         388|   -5.840297|   -8.211607|    0.823989|    0.012010|
|         389|   -5.840824|   -8.215785|    0.823990|    0.012010|
|         390|   -5.841145|   -8.219731|    0.823991|    0.012010|
|         391|   -5.841292|   -8.223355|    0.823992|    0.012010|
|         392|   -5.841293|   -8.226580|    0.823992|    0.012010|
|         393|   -5.841178|   -8.229337|    0.823993|    0.012010|
|         394|   -5.840974|   -8.231579|    0.823994|    0.012011|
|         395|   -5.840706|   -8.233275|    0.823995|    0.012011|
|         396|   -5.840395|   -8.234419|    0.823996|    0.012011|
|         397|   -5.840062|   -8.235021|    0.823996|    0.012011|
|         398|   -5.839724|   -8.235117|    0.823997|    0.012011|
|         399|   -5.839395|   -8.234758|    0.823998|    0.012011|
|         400|   -5.839086|   -8.234009|    0.823999|    0.012011|
|         401|   -5.838808|   -8.232949|    0.823999|    0.012012|
+-----------------------------------------------------------------------+
|Fixed CL Mode                           |Value                         |
+-----------------------------------------------------------------------+
|Current CL                              |0.823999                      |
|Target CL                               |0.824                         |
|Previous AOA                            |2.78064                       |
|Changed AoA by                          |7.32659e-06                   |
+-----------------------------------------------------------------------+
+----------------------------------------------------------------+
|  Inner_Iter|    rms[Rho]|     rms[nu]|          CL|          CD|
+----------------------------------------------------------------+
|         402|   -5.310811|   -8.230730|    0.824000|    0.012012|
|         403|   -5.625515|   -8.229798|    0.824000|    0.012012|
|         404|   -5.749027|   -8.228491|    0.824001|    0.012012|
|         405|   -5.768703|   -8.227127|    0.824002|    0.012012|
|         406|   -5.778456|   -8.225804|    0.824002|    0.012012|
|         407|   -5.791289|   -8.224590|    0.824003|    0.012012|
|         408|   -5.804718|   -8.223546|    0.824003|    0.012013|
|         409|   -5.815484|   -8.222723|    0.824004|    0.012013|
|         410|   -5.822663|   -8.222158|    0.824004|    0.012013|
|         411|   -5.827138|   -8.221876|    0.824005|    0.012013|
|         412|   -5.830007|   -8.221892|    0.824005|    0.012013|
|         413|   -5.831920|   -8.222209|    0.824005|    0.012013|
|         414|   -5.833227|   -8.222820|    0.824006|    0.012014|
|         415|   -5.834232|   -8.223713|    0.824006|    0.012014|
|         416|   -5.835228|   -8.224865|    0.824006|    0.012014|
|         417|   -5.836421|   -8.226253|    0.824006|    0.012014|
|         418|   -5.837881|   -8.227845|    0.824007|    0.012014|
|         419|   -5.839572|   -8.229612|    0.824007|    0.012014|
|         420|   -5.841428|   -8.231523|    0.824007|    0.012014|
|         421|   -5.843416|   -8.233548|    0.824007|    0.012014|
|         422|   -5.845547|   -8.235660|    0.824007|    0.012015|
|         423|   -5.847853|   -8.237834|    0.824007|    0.012015|
|         424|   -5.850347|   -8.240051|    0.824008|    0.012015|
|         425|   -5.853008|   -8.242296|    0.824008|    0.012015|
|         426|   -5.855790|   -8.244560|    0.824008|    0.012015|
|         427|   -5.858638|   -8.246838|    0.824008|    0.012015|
|         428|   -5.861509|   -8.249132|    0.824008|    0.012015|
|         429|   -5.864380|   -8.251448|    0.824008|    0.012015|
|         430|   -5.867245|   -8.253795|    0.824008|    0.012015|
|         431|   -5.870115|   -8.256186|    0.824008|    0.012015|
|         432|   -5.873006|   -8.258639|    0.824008|    0.012015|
|         433|   -5.875935|   -8.261171|    0.824007|    0.012015|
|         434|   -5.878910|   -8.263797|    0.824007|    0.012015|
|         435|   -5.881923|   -8.266535|    0.824007|    0.012015|
|         436|   -5.884950|   -8.269400|    0.824007|    0.012015|
|         437|   -5.887949|   -8.272404|    0.824007|    0.012015|
|         438|   -5.890861|   -8.275555|    0.824007|    0.012015|
|         439|   -5.893619|   -8.278861|    0.824007|    0.012015|
|         440|   -5.896155|   -8.282321|    0.824006|    0.012015|
|         441|   -5.898402|   -8.285932|    0.824006|    0.012015|
|         442|   -5.900306|   -8.289687|    0.824006|    0.012015|
|         443|   -5.901825|   -8.293572|    0.824006|    0.012015|
|         444|   -5.902933|   -8.297567|    0.824005|    0.012015|
|         445|   -5.903622|   -8.301650|    0.824005|    0.012015|
|         446|   -5.903893|   -8.305790|    0.824005|    0.012015|
|         447|   -5.903761|   -8.309956|    0.824005|    0.012015|
|         448|   -5.903247|   -8.314109|    0.824005|    0.012015|
|         449|   -5.902375|   -8.318208|    0.824004|    0.012015|
|         450|   -5.901172|   -8.322211|    0.824004|    0.012015|
|         451|   -5.899668|   -8.326073|    0.824004|    0.012015|
|         452|   -5.897895|   -8.329751|    0.824004|    0.012014|
|         453|   -5.895888|   -8.333203|    0.824003|    0.012014|
|         454|   -5.893685|   -8.336393|    0.824003|    0.012014|
|         455|   -5.891327|   -8.339288|    0.824003|    0.012014|
|         456|   -5.888860|   -8.341864|    0.824003|    0.012014|
|         457|   -5.886328|   -8.344107|    0.824003|    0.012014|
|         458|   -5.883777|   -8.346008|    0.824003|    0.012014|
|         459|   -5.881253|   -8.347572|    0.824002|    0.012014|
|         460|   -5.878798|   -8.348812|    0.824002|    0.012013|
|         461|   -5.876453|   -8.349752|    0.824002|    0.012013|
|         462|   -5.874254|   -8.350424|    0.824002|    0.012013|
|         463|   -5.872234|   -8.350865|    0.824002|    0.012013|
|         464|   -5.870423|   -8.351122|    0.824002|    0.012013|
|         465|   -5.868845|   -8.351243|    0.824002|    0.012013|
|         466|   -5.867522|   -8.351279|    0.824002|    0.012013|
|         467|   -5.866474|   -8.351281|    0.824002|    0.012013|
|         468|   -5.865715|   -8.351300|    0.824002|    0.012012|
|         469|   -5.865258|   -8.351382|    0.824002|    0.012012|
|         470|   -5.865113|   -8.351572|    0.824002|    0.012012|
|         471|   -5.865286|   -8.351907|    0.824002|    0.012012|
|         472|   -5.865782|   -8.352423|    0.824002|    0.012012|
|         473|   -5.866603|   -8.353145|    0.824002|    0.012012|
|         474|   -5.867747|   -8.354095|    0.824003|    0.012012|
|         475|   -5.869213|   -8.355286|    0.824003|    0.012012|
|         476|   -5.870994|   -8.356728|    0.824003|    0.012012|
|         477|   -5.873085|   -8.358424|    0.824003|    0.012011|
|         478|   -5.875474|   -8.360371|    0.824003|    0.012011|
|         479|   -5.878151|   -8.362563|    0.824004|    0.012011|
|         480|   -5.881102|   -8.364985|    0.824004|    0.012011|
|         481|   -5.884311|   -8.367624|    0.824004|    0.012011|
|         482|   -5.887761|   -8.370458|    0.824004|    0.012011|
|         483|   -5.891432|   -8.373467|    0.824005|    0.012011|
|         484|   -5.895302|   -8.376626|    0.824005|    0.012011|
|         485|   -5.899346|   -8.379910|    0.824005|    0.012011|
|         486|   -5.903539|   -8.383296|    0.824006|    0.012011|
|         487|   -5.907851|   -8.386757|    0.824006|    0.012011|
|         488|   -5.912253|   -8.390270|    0.824006|    0.012011|
|         489|   -5.916712|   -8.393815|    0.824007|    0.012011|
|         490|   -5.921194|   -8.397370|    0.824007|    0.012011|
|         491|   -5.925663|   -8.400919|    0.824008|    0.012011|
|         492|   -5.930082|   -8.404448|    0.824008|    0.012011|
|         493|   -5.934412|   -8.407945|    0.824008|    0.012011|
|         494|   -5.938617|   -8.411400|    0.824009|    0.012011|
|         495|   -5.942656|   -8.414808|    0.824009|    0.012011|
|         496|   -5.946492|   -8.418163|    0.824010|    0.012011|
|         497|   -5.950088|   -8.421463|    0.824010|    0.012011|
|         498|   -5.953411|   -8.424708|    0.824010|    0.012011|
|         499|   -5.956429|   -8.427897|    0.824011|    0.012011|
|         500|   -5.959113|   -8.431031|    0.824011|    0.012011|
|         501|   -5.961442|   -8.434111|    0.824012|    0.012011|
+-----------------------------------------------------------------------+
|Fixed CL Mode                           |Value                         |
+-----------------------------------------------------------------------+
|Current CL                              |0.824012                      |
|Target CL                               |0.824                         |
|Previous AOA                            |2.78065                       |
|Changed AoA by                          |-5.60637e-05                  |
+-----------------------------------------------------------------------+
+----------------------------------------------------------------+
|  Inner_Iter|    rms[Rho]|     rms[nu]|          CL|          CD|
+----------------------------------------------------------------+
|         502|   -4.444238|   -8.331503|    0.824012|    0.012011|
|         503|   -4.825795|   -8.379676|    0.824012|    0.012011|
|         504|   -5.063696|   -8.397404|    0.824013|    0.012011|
|         505|   -5.140984|   -8.408552|    0.824013|    0.012011|
|         506|   -5.194844|   -8.417410|    0.824014|    0.012011|
|         507|   -5.263868|   -8.425053|    0.824014|    0.012011|
|         508|   -5.347846|   -8.431835|    0.824014|    0.012011|
|         509|   -5.433974|   -8.437913|    0.824015|    0.012011|
|         510|   -5.506534|   -8.443361|    0.824015|    0.012012|
|         511|   -5.558336|   -8.448135|    0.824015|    0.012012|
|         512|   -5.591612|   -8.452195|    0.824016|    0.012012|
|         513|   -5.610353|   -8.455625|    0.824016|    0.012012|
|         514|   -5.618309|   -8.458574|    0.824016|    0.012012|
|         515|   -5.620764|   -8.461137|    0.824017|    0.012012|
|         516|   -5.623505|   -8.463336|    0.824017|    0.012012|
|         517|   -5.630331|   -8.465137|    0.824017|    0.012012|
|         518|   -5.642021|   -8.466534|    0.824017|    0.012013|
|         519|   -5.656924|   -8.467554|    0.824018|    0.012013|
|         520|   -5.672374|   -8.468263|    0.824018|    0.012013|
|         521|   -5.686266|   -8.468728|    0.824018|    0.012013|
|         522|   -5.697991|   -8.468978|    0.824018|    0.012013|
|         523|   -5.708221|   -8.469013|    0.824019|    0.012013|
|         524|   -5.717972|   -8.468813|    0.824019|    0.012013|
|         525|   -5.727833|   -8.468357|    0.824019|    0.012013|
|         526|   -5.737775|   -8.467634|    0.824019|    0.012014|
|         527|   -5.747395|   -8.466646|    0.824019|    0.012014|
|         528|   -5.756224|   -8.465404|    0.824019|    0.012014|
|         529|   -5.763921|   -8.463924|    0.824019|    0.012014|
|         530|   -5.770327|   -8.462235|    0.824019|    0.012014|
|         531|   -5.775469|   -8.460362|    0.824019|    0.012014|
|         532|   -5.779559|   -8.458324|    0.824020|    0.012014|
|         533|   -5.782983|   -8.456152|    0.824020|    0.012014|
|         534|   -5.786237|   -8.453870|    0.824020|    0.012014|
|         535|   -5.789821|   -8.451502|    0.824020|    0.012014|
|         536|   -5.794134|   -8.449074|    0.824020|    0.012014|
|         537|   -5.799402|   -8.446612|    0.824020|    0.012014|
|         538|   -5.805656|   -8.444146|    0.824019|    0.012014|
|         539|   -5.812740|   -8.441707|    0.824019|    0.012014|
|         540|   -5.820347|   -8.439328|    0.824019|    0.012014|
|         541|   -5.828084|   -8.437044|    0.824019|    0.012014|
|         542|   -5.835553|   -8.434889|    0.824019|    0.012014|
|         543|   -5.842447|   -8.432898|    0.824019|    0.012014|
|         544|   -5.848630|   -8.431108|    0.824019|    0.012014|
|         545|   -5.854170|   -8.429551|    0.824019|    0.012014|
|         546|   -5.859306|   -8.428256|    0.824019|    0.012014|
|         547|   -5.864377|   -8.427250|    0.824018|    0.012014|
|         548|   -5.869718|   -8.426552|    0.824018|    0.012014|
|         549|   -5.875586|   -8.426178|    0.824018|    0.012014|
|         550|   -5.882109|   -8.426140|    0.824018|    0.012014|
|         551|   -5.889274|   -8.426445|    0.824018|    0.012014|
|         552|   -5.896951|   -8.427101|    0.824017|    0.012014|
|         553|   -5.904929|   -8.428112|    0.824017|    0.012014|
|         554|   -5.912971|   -8.429475|    0.824017|    0.012014|
|         555|   -5.920855|   -8.431190|    0.824016|    0.012014|
|         556|   -5.928417|   -8.433257|    0.824016|    0.012014|
|         557|   -5.935560|   -8.435674|    0.824016|    0.012014|
|         558|   -5.942261|   -8.438442|    0.824015|    0.012013|
|         559|   -5.948547|   -8.441559|    0.824015|    0.012013|
|         560|   -5.954472|   -8.445022|    0.824015|    0.012013|
|         561|   -5.960094|   -8.448824|    0.824014|    0.012013|
|         562|   -5.965457|   -8.452957|    0.824014|    0.012013|
|         563|   -5.970581|   -8.457404|    0.824013|    0.012013|
|         564|   -5.975466|   -8.462143|    0.824013|    0.012013|
|         565|   -5.980094|   -8.467143|    0.824012|    0.012013|
|         566|   -5.984442|   -8.472365|    0.824012|    0.012012|
|         567|   -5.988489|   -8.477757|    0.824011|    0.012012|
|         568|   -5.992223|   -8.483258|    0.824011|    0.012012|
|         569|   -5.995641|   -8.488790|    0.824011|    0.012012|
|         570|   -5.998754|   -8.494264|    0.824010|    0.012012|
|         571|   -6.001577|   -8.499577|    0.824010|    0.012012|
|         572|   -6.004136|   -8.504617|    0.824009|    0.012012|
|         573|   -6.006456|   -8.509264|    0.824009|    0.012011|
|         574|   -6.008566|   -8.513394|    0.824009|    0.012011|
|         575|   -6.010493|   -8.516891|    0.824008|    0.012011|
|         576|   -6.012267|   -8.519647|    0.824008|    0.012011|
|         577|   -6.013917|   -8.521576|    0.824008|    0.012011|
|         578|   -6.015476|   -8.522619|    0.824008|    0.012011|
|         579|   -6.016974|   -8.522751|    0.824007|    0.012011|
|         580|   -6.018447|   -8.521986|    0.824007|    0.012010|
|         581|   -6.019930|   -8.520377|    0.824007|    0.012010|
|         582|   -6.021457|   -8.518012|    0.824007|    0.012010|
|         583|   -6.023065|   -8.515014|    0.824007|    0.012010|
|         584|   -6.024786|   -8.511529|    0.824007|    0.012010|
|         585|   -6.026654|   -8.507721|    0.824007|    0.012010|
|         586|   -6.028700|   -8.503762|    0.824007|    0.012010|
|         587|   -6.030951|   -8.499825|    0.824007|    0.012010|
|         588|   -6.033433|   -8.496078|    0.824008|    0.012010|
|         589|   -6.036168|   -8.492677|    0.824008|    0.012010|
|         590|   -6.039174|   -8.489765|    0.824008|    0.012010|
|         591|   -6.042467|   -8.487469|    0.824008|    0.012010|
|         592|   -6.046058|   -8.485899|    0.824009|    0.012010|
|         593|   -6.049953|   -8.485146|    0.824009|    0.012010|
|         594|   -6.054155|   -8.485285|    0.824010|    0.012010|
|         595|   -6.058662|   -8.486374|    0.824010|    0.012010|
|         596|   -6.063468|   -8.488453|    0.824010|    0.012010|
|         597|   -6.068561|   -8.491548|    0.824011|    0.012010|
|         598|   -6.073926|   -8.495667|    0.824011|    0.012010|
|         599|   -6.079542|   -8.500801|    0.824012|    0.012010|
|         600|   -6.085383|   -8.506926|    0.824012|    0.012010|
|         601|   -6.091420|   -8.513998|    0.824013|    0.012009|
+-----------------------------------------------------------------------+
|Fixed CL Mode                           |Value                         |
+-----------------------------------------------------------------------+
|Current CL                              |0.824013                      |
|Target CL                               |0.824                         |
|Previous AOA                            |2.78059                       |
|Changed AoA by                          |-6.17621e-05                  |
+-----------------------------------------------------------------------+
+----------------------------------------------------------------+
|  Inner_Iter|    rms[Rho]|     rms[nu]|          CL|          CD|
+----------------------------------------------------------------+
|         602|   -4.402453|   -8.358182|    0.824013|    0.012009|
|         603|   -4.785198|   -8.430181|    0.824014|    0.012009|
|         604|   -5.024743|   -8.461500|    0.824015|    0.012009|
|         605|   -5.101645|   -8.483960|    0.824015|    0.012009|
|         606|   -5.154983|   -8.503485|    0.824016|    0.012009|
|         607|   -5.224289|   -8.521421|    0.824016|    0.012009|
|         608|   -5.309806|   -8.538100|    0.824017|    0.012009|
|         609|   -5.399245|   -8.553647|    0.824017|    0.012009|
|         610|   -5.476964|   -8.568017|    0.824018|    0.012009|
|         611|   -5.534981|   -8.580918|    0.824018|    0.012010|
|         612|   -5.574455|   -8.592038|    0.824019|    0.012010|
|         613|   -5.598447|   -8.601346|    0.824019|    0.012010|
|         614|   -5.610149|   -8.608989|    0.824020|    0.012010|
|         615|   -5.615101|   -8.615113|    0.824020|    0.012010|
|         616|   -5.619972|   -8.619700|    0.824021|    0.012010|
|         617|   -5.629420|   -8.622646|    0.824021|    0.012010|
|         618|   -5.644695|   -8.623941|    0.824021|    0.012010|
|         619|   -5.664185|   -8.623753|    0.824022|    0.012010|
|         620|   -5.684914|   -8.622357|    0.824022|    0.012011|
|         621|   -5.704362|   -8.620034|    0.824023|    0.012011|
|         622|   -5.721693|   -8.616985|    0.824023|    0.012011|
|         623|   -5.737661|   -8.613325|    0.824023|    0.012011|
|         624|   -5.753493|   -8.609119|    0.824023|    0.012011|
|         625|   -5.769854|   -8.604474|    0.824024|    0.012011|
|         626|   -5.786523|   -8.599488|    0.824024|    0.012011|
|         627|   -5.802668|   -8.594284|    0.824024|    0.012011|
|         628|   -5.817302|   -8.588993|    0.824024|    0.012011|
|         629|   -5.829641|   -8.583738|    0.824024|    0.012012|
|         630|   -5.839274|   -8.578631|    0.824024|    0.012012|
|         631|   -5.846217|   -8.573774|    0.824024|    0.012012|
|         632|   -5.850918|   -8.569221|    0.824024|    0.012012|
|         633|   -5.854178|   -8.565003|    0.824024|    0.012012|
|         634|   -5.856977|   -8.561138|    0.824024|    0.012012|
|         635|   -5.860252|   -8.557602|    0.824024|    0.012012|
|         636|   -5.864707|   -8.554366|    0.824024|    0.012012|
|         637|   -5.870713|   -8.551389|    0.824024|    0.012012|
|         638|   -5.878285|   -8.548628|    0.824024|    0.012012|
|         639|   -5.887113|   -8.546038|    0.824024|    0.012013|
|         640|   -5.896622|   -8.543586|    0.824024|    0.012013|
|         641|   -5.906084|   -8.541244|    0.824024|    0.012013|
|         642|   -5.914766|   -8.538993|    0.824023|    0.012013|
|         643|   -5.922116|   -8.536830|    0.824023|    0.012013|
|         644|   -5.927917|   -8.534751|    0.824023|    0.012013|
|         645|   -5.932350|   -8.532765|    0.824023|    0.012013|
|         646|   -5.935920|   -8.530880|    0.824022|    0.012013|
|         647|   -5.939301|   -8.529103|    0.824022|    0.012013|
|         648|   -5.943142|   -8.527442|    0.824022|    0.012013|
|         649|   -5.947937|   -8.525903|    0.824021|    0.012013|
|         650|   -5.953949|   -8.524488|    0.824021|    0.012013|
|         651|   -5.961207|   -8.523190|    0.824021|    0.012013|
|         652|   -5.969545|   -8.522007|    0.824020|    0.012013|
|         653|   -5.978674|   -8.520945|    0.824020|    0.012013|
|         654|   -5.988254|   -8.519993|    0.824020|    0.012013|
|         655|   -5.997977|   -8.519144|    0.824019|    0.012013|
|         656|   -6.007617|   -8.518393|    0.824019|    0.012013|
|         657|   -6.017067|   -8.517739|    0.824018|    0.012013|
|         658|   -6.026332|   -8.517186|    0.824018|    0.012013|
|         659|   -6.035506|   -8.516738|    0.824017|    0.012013|
|         660|   -6.044726|   -8.516408|    0.824017|    0.012013|
|         661|   -6.054133|   -8.516204|    0.824016|    0.012013|
|         662|   -6.063838|   -8.516140|    0.824016|    0.012013|
|         663|   -6.073903|   -8.516231|    0.824015|    0.012012|
|         664|   -6.084342|   -8.516494|    0.824015|    0.012012|
|         665|   -6.095128|   -8.516946|    0.824014|    0.012012|
|         666|   -6.106202|   -8.517601|    0.824013|    0.012012|
|         667|   -6.117493|   -8.518473|    0.824013|    0.012012|
|         668|   -6.128926|   -8.519570|    0.824012|    0.012012|
|         669|   -6.140430|   -8.520898|    0.824012|    0.012012|
|         670|   -6.151939|   -8.522455|    0.824011|    0.012012|
|         671|   -6.163388|   -8.524229|    0.824011|    0.012012|
|         672|   -6.174713|   -8.526201|    0.824010|    0.012012|
|         673|   -6.185844|   -8.528337|    0.824010|    0.012012|
|         674|   -6.196701|   -8.530594|    0.824009|    0.012012|
|         675|   -6.207197|   -8.532916|    0.824009|    0.012011|
|         676|   -6.217238|   -8.535234|    0.824008|    0.012011|
|         677|   -6.226730|   -8.537472|    0.824008|    0.012011|
|         678|   -6.235583|   -8.539544|    0.824008|    0.012011|
|         679|   -6.243721|   -8.541360|    0.824007|    0.012011|
|         680|   -6.251081|   -8.542833|    0.824007|    0.012011|
|         681|   -6.257625|   -8.543882|    0.824007|    0.012011|
|         682|   -6.263337|   -8.544438|    0.824007|    0.012011|
|         683|   -6.268228|   -8.544450|    0.824007|    0.012011|
|         684|   -6.272332|   -8.543891|    0.824006|    0.012011|
|         685|   -6.275704|   -8.542761|    0.824006|    0.012011|
|         686|   -6.278419|   -8.541087|    0.824006|    0.012010|
|         687|   -6.280565|   -8.538926|    0.824006|    0.012010|
|         688|   -6.282239|   -8.536359|    0.824006|    0.012010|
|         689|   -6.283544|   -8.533489|    0.824006|    0.012010|
|         690|   -6.284583|   -8.530433|    0.824006|    0.012010|
|         691|   -6.285456|   -8.527322|    0.824007|    0.012010|
|         692|   -6.286257|   -8.524289|    0.824007|    0.012010|
|         693|   -6.287071|   -8.521467|    0.824007|    0.012010|
|         694|   -6.287974|   -8.518984|    0.824007|    0.012010|
|         695|   -6.289031|   -8.516957|    0.824007|    0.012010|
|         696|   -6.290297|   -8.515493|    0.824008|    0.012010|
|         697|   -6.291815|   -8.514685|    0.824008|    0.012010|
|         698|   -6.293620|   -8.514610|    0.824008|    0.012010|
|         699|   -6.295737|   -8.515329|    0.824009|    0.012010|
|         700|   -6.298180|   -8.516887|    0.824009|    0.012010|
|         701|   -6.300958|   -8.519308|    0.824010|    0.012009|
+-----------------------------------------------------------------------+
|Fixed CL Mode                           |Value                         |
+-----------------------------------------------------------------------+
|Current CL                              |0.82401                       |
|Target CL                               |0.824                         |
|Previous AOA                            |2.78053                       |
|Changed AoA by                          |-4.60034e-05                  |
+-----------------------------------------------------------------------+
+----------------------------------------------------------------+
|  Inner_Iter|    rms[Rho]|     rms[nu]|          CL|          CD|
+----------------------------------------------------------------+
|         702|   -4.530442|   -8.416855|    0.824010|    0.012009|
|         703|   -4.913181|   -8.466311|    0.824010|    0.012009|
|         704|   -5.152137|   -8.486350|    0.824011|    0.012009|
|         705|   -5.228288|   -8.500580|    0.824011|    0.012009|
|         706|   -5.281150|   -8.513097|    0.824012|    0.012009|
|         707|   -5.350141|   -8.524855|    0.824012|    0.012009|
|         708|   -5.435524|   -8.536136|    0.824013|    0.012009|
|         709|   -5.525259|   -8.547065|    0.824013|    0.012009|
|         710|   -5.604014|   -8.557640|    0.824014|    0.012009|
|         711|   -5.663819|   -8.567703|    0.824014|    0.012009|
|         712|   -5.705457|   -8.577055|    0.824014|    0.012009|
|         713|   -5.731502|   -8.585602|    0.824015|    0.012009|
|         714|   -5.744753|   -8.593313|    0.824015|    0.012009|
|         715|   -5.750670|   -8.600148|    0.824016|    0.012009|
|         716|   -5.756135|   -8.605960|    0.824016|    0.012009|
|         717|   -5.766087|   -8.610576|    0.824017|    0.012009|
|         718|   -5.781978|   -8.613890|    0.824017|    0.012009|
|         719|   -5.802288|   -8.615902|    0.824017|    0.012009|
|         720|   -5.824067|   -8.616704|    0.824018|    0.012009|
|         721|   -5.844782|   -8.616429|    0.824018|    0.012009|
|         722|   -5.863602|   -8.615204|    0.824018|    0.012009|
|         723|   -5.881313|   -8.613135|    0.824018|    0.012010|
|         724|   -5.899176|   -8.610313|    0.824019|    0.012010|
|         725|   -5.917842|   -8.606870|    0.824019|    0.012010|
|         726|   -5.936996|   -8.602948|    0.824019|    0.012010|
|         727|   -5.955627|   -8.598698|    0.824019|    0.012010|
|         728|   -5.972531|   -8.594280|    0.824019|    0.012010|
|         729|   -5.986728|   -8.589843|    0.824019|    0.012010|
|         730|   -5.997696|   -8.585526|    0.824020|    0.012010|
|         731|   -6.005449|   -8.581432|    0.824020|    0.012010|
|         732|   -6.010542|   -8.577644|    0.824020|    0.012010|
|         733|   -6.013950|   -8.574218|    0.824020|    0.012010|
|         734|   -6.016843|   -8.571178|    0.824020|    0.012010|
|         735|   -6.020317|   -8.568524|    0.824020|    0.012011|
|         736|   -6.025173|   -8.566235|    0.824020|    0.012011|
|         737|   -6.031814|   -8.564277|    0.824020|    0.012011|
|         738|   -6.040225|   -8.562603|    0.824020|    0.012011|
|         739|   -6.050008|   -8.561165|    0.824019|    0.012011|
|         740|   -6.060457|   -8.559910|    0.824019|    0.012011|
|         741|   -6.070679|   -8.558794|    0.824019|    0.012011|
|         742|   -6.079775|   -8.557772|    0.824019|    0.012011|
|         743|   -6.087075|   -8.556809|    0.824019|    0.012011|
|         744|   -6.092330|   -8.555877|    0.824019|    0.012011|
|         745|   -6.095784|   -8.554955|    0.824019|    0.012011|
|         746|   -6.098079|   -8.554025|    0.824018|    0.012011|
|         747|   -6.100039|   -8.553077|    0.824018|    0.012011|
|         748|   -6.102446|   -8.552102|    0.824018|    0.012011|
|         749|   -6.105874|   -8.551091|    0.824018|    0.012012|
|         750|   -6.110619|   -8.550040|    0.824018|    0.012012|
|         751|   -6.116700|   -8.548942|    0.824017|    0.012012|
|         752|   -6.123920|   -8.547796|    0.824017|    0.012012|
|         753|   -6.131942|   -8.546602|    0.824017|    0.012012|
|         754|   -6.140387|   -8.545361|    0.824016|    0.012012|
|         755|   -6.148912|   -8.544069|    0.824016|    0.012012|
|         756|   -6.157284|   -8.542727|    0.824016|    0.012012|
|         757|   -6.165400|   -8.541338|    0.824016|    0.012012|
|         758|   -6.173290|   -8.539912|    0.824015|    0.012012|
|         759|   -6.181078|   -8.538458|    0.824015|    0.012012|
|         760|   -6.188935|   -8.536994|    0.824014|    0.012012|
|         761|   -6.197029|   -8.535538|    0.824014|    0.012012|
|         762|   -6.205495|   -8.534112|    0.824014|    0.012012|
|         763|   -6.214414|   -8.532743|    0.824013|    0.012012|
|         764|   -6.223817|   -8.531460|    0.824013|    0.012012|
|         765|   -6.233687|   -8.530294|    0.824013|    0.012012|
|         766|   -6.243983|   -8.529279|    0.824012|    0.012012|
|         767|   -6.254649|   -8.528447|    0.824012|    0.012012|
|         768|   -6.265628|   -8.527829|    0.824011|    0.012012|
|         769|   -6.276868|   -8.527455|    0.824011|    0.012012|
|         770|   -6.288323|   -8.527349|    0.824010|    0.012012|
|         771|   -6.299951|   -8.527528|    0.824010|    0.012012|
|         772|   -6.311707|   -8.528002|    0.824010|    0.012012|
|         773|   -6.323536|   -8.528772|    0.824009|    0.012012|
|         774|   -6.335371|   -8.529826|    0.824009|    0.012012|
|         775|   -6.347132|   -8.531142|    0.824009|    0.012012|
|         776|   -6.358724|   -8.532685|    0.824008|    0.012012|
|         777|   -6.370042|   -8.534408|    0.824008|    0.012012|
|         778|   -6.380973|   -8.536251|    0.824008|    0.012012|
|         779|   -6.391406|   -8.538145|    0.824007|    0.012012|
|         780|   -6.401234|   -8.540013|    0.824007|    0.012012|
|         781|   -6.410363|   -8.541775|    0.824007|    0.012012|
|         782|   -6.418716|   -8.543347|    0.824007|    0.012011|
|         783|   -6.426235|   -8.544651|    0.824006|    0.012011|
|         784|   -6.432889|   -8.545616|    0.824006|    0.012011|
|         785|   -6.438669|   -8.546188|    0.824006|    0.012011|
|         786|   -6.443594|   -8.546326|    0.824006|    0.012011|
|         787|   -6.447706|   -8.546014|    0.824006|    0.012011|
|         788|   -6.451069|   -8.545257|    0.824006|    0.012011|
|         789|   -6.453763|   -8.544085|    0.824006|    0.012011|
|         790|   -6.455878|   -8.542548|    0.824006|    0.012011|
|         791|   -6.457515|   -8.540718|    0.824006|    0.012011|
|         792|   -6.458772|   -8.538681|    0.824006|    0.012011|
|         793|   -6.459748|   -8.536533|    0.824006|    0.012011|
|         794|   -6.460535|   -8.534379|    0.824006|    0.012011|
|         795|   -6.461219|   -8.532322|    0.824006|    0.012011|
|         796|   -6.461874|   -8.530462|    0.824006|    0.012011|
|         797|   -6.462563|   -8.528895|    0.824007|    0.012011|
|         798|   -6.463342|   -8.527704|    0.824007|    0.012011|
|         799|   -6.464253|   -8.526961|    0.824007|    0.012011|
|         800|   -6.465331|   -8.526723|    0.824007|    0.012011|
|         801|   -6.466601|   -8.527035|    0.824008|    0.012010|
+-----------------------------------------------------------------------+
|Fixed CL Mode                           |Value                         |
+-----------------------------------------------------------------------+
|Current CL                              |0.824008                      |
|Target CL                               |0.824                         |
|Previous AOA                            |2.78049                       |
|Changed AoA by                          |-3.64597e-05                  |
+-----------------------------------------------------------------------+
+----------------------------------------------------------------+
|  Inner_Iter|    rms[Rho]|     rms[nu]|          CL|          CD|
+----------------------------------------------------------------+
|         802|   -4.631481|   -8.454523|    0.824008|    0.012010|
|         803|   -5.014614|   -8.489323|    0.824008|    0.012010|
|         804|   -5.254344|   -8.502106|    0.824008|    0.012010|
|         805|   -5.330595|   -8.510699|    0.824009|    0.012010|
|         806|   -5.383314|   -8.518070|    0.824009|    0.012010|
|         807|   -5.452224|   -8.524921|    0.824009|    0.012010|
|         808|   -5.537634|   -8.531475|    0.824010|    0.012010|
|         809|   -5.627475|   -8.537844|    0.824010|    0.012010|
|         810|   -5.706346|   -8.544060|    0.824010|    0.012010|
|         811|   -5.766202|   -8.550060|    0.824011|    0.012010|
|         812|   -5.807814|   -8.555775|    0.824011|    0.012010|
|         813|   -5.833775|   -8.561177|    0.824011|    0.012010|
|         814|   -5.846923|   -8.566287|    0.824011|    0.012010|
|         815|   -5.852757|   -8.571107|    0.824012|    0.012010|
|         816|   -5.858187|   -8.575575|    0.824012|    0.012010|
|         817|   -5.868158|   -8.579605|    0.824012|    0.012009|
|         818|   -5.884120|   -8.583139|    0.824013|    0.012009|
|         819|   -5.904546|   -8.586166|    0.824013|    0.012009|
|         820|   -5.926478|   -8.588715|    0.824013|    0.012009|
|         821|   -5.947379|   -8.590830|    0.824013|    0.012010|
|         822|   -5.966426|   -8.592548|    0.824013|    0.012010|
|         823|   -5.984426|   -8.593888|    0.824014|    0.012010|
|         824|   -6.002668|   -8.594869|    0.824014|    0.012010|
|         825|   -6.021824|   -8.595518|    0.824014|    0.012010|
|         826|   -6.041583|   -8.595901|    0.824014|    0.012010|
|         827|   -6.060918|   -8.596077|    0.824014|    0.012010|
|         828|   -6.078585|   -8.596119|    0.824014|    0.012010|
|         829|   -6.093553|   -8.596103|    0.824014|    0.012010|
|         830|   -6.105247|   -8.596103|    0.824015|    0.012010|
|         831|   -6.113650|   -8.596185|    0.824015|    0.012010|
|         832|   -6.119312|   -8.596405|    0.824015|    0.012010|
|         833|   -6.123239|   -8.596799|    0.824015|    0.012010|
|         834|   -6.126651|   -8.597387|    0.824015|    0.012010|
|         835|   -6.130694|   -8.598171|    0.824015|    0.012010|
|         836|   -6.136220|   -8.599137|    0.824015|    0.012010|
|         837|   -6.143661|   -8.600257|    0.824015|    0.012010|
|         838|   -6.153013|   -8.601498|    0.824015|    0.012010|
|         839|   -6.163861|   -8.602817|    0.824015|    0.012010|
|         840|   -6.175455|   -8.604174|    0.824015|    0.012010|
|         841|   -6.186825|   -8.605527|    0.824015|    0.012010|
|         842|   -6.196975|   -8.606839|    0.824015|    0.012010|
|         843|   -6.205144|   -8.608078|    0.824014|    0.012010|
|         844|   -6.211022|   -8.609218|    0.824014|    0.012010|
|         845|   -6.214850|   -8.610239|    0.824014|    0.012010|
|         846|   -6.217319|   -8.611126|    0.824014|    0.012010|
|         847|   -6.219329|   -8.611869|    0.824014|    0.012010|
|         848|   -6.221741|   -8.612460|    0.824014|    0.012010|
|         849|   -6.225189|   -8.612896|    0.824014|    0.012010|
|         850|   -6.230005|   -8.613172|    0.824014|    0.012010|
|         851|   -6.236218|   -8.613289|    0.824013|    0.012010|
|         852|   -6.243621|   -8.613246|    0.824013|    0.012011|
|         853|   -6.251853|   -8.613045|    0.824013|    0.012011|
|         854|   -6.260505|   -8.612700|    0.824013|    0.012011|
|         855|   -6.269210|   -8.612209|    0.824013|    0.012011|
|         856|   -6.277714|   -8.611576|    0.824013|    0.012011|
|         857|   -6.285911|   -8.610811|    0.824012|    0.012011|
|         858|   -6.293840|   -8.609927|    0.824012|    0.012011|
|         859|   -6.301643|   -8.608943|    0.824012|    0.012011|
|         860|   -6.309517|   -8.607882|    0.824012|    0.012011|
|         861|   -6.317656|   -8.606770|    0.824011|    0.012011|
|         862|   -6.326218|   -8.605641|    0.824011|    0.012011|
|         863|   -6.335304|   -8.604530|    0.824011|    0.012011|
|         864|   -6.344960|   -8.603478|    0.824010|    0.012011|
|         865|   -6.355183|   -8.602527|    0.824010|    0.012011|
|         866|   -6.365944|   -8.601722|    0.824010|    0.012011|
|         867|   -6.377197|   -8.601107|    0.824010|    0.012011|
|         868|   -6.388899|   -8.600726|    0.824009|    0.012011|
|         869|   -6.401012|   -8.600620|    0.824009|    0.012011|
|         870|   -6.413508|   -8.600823|    0.824009|    0.012011|
|         871|   -6.426360|   -8.601365|    0.824008|    0.012011|
|         872|   -6.439542|   -8.602266|    0.824008|    0.012011|
|         873|   -6.453016|   -8.603535|    0.824008|    0.012011|
|         874|   -6.466732|   -8.605172|    0.824007|    0.012011|
|         875|   -6.480618|   -8.607163|    0.824007|    0.012011|
|         876|   -6.494586|   -8.609480|    0.824007|    0.012011|
|         877|   -6.508526|   -8.612084|    0.824007|    0.012011|
|         878|   -6.522313|   -8.614919|    0.824006|    0.012011|
|         879|   -6.535811|   -8.617919|    0.824006|    0.012011|
|         880|   -6.548876|   -8.621006|    0.824006|    0.012011|
|         881|   -6.561364|   -8.624095|    0.824006|    0.012011|
|         882|   -6.573137|   -8.627095|    0.824005|    0.012011|
|         883|   -6.584067|   -8.629913|    0.824005|    0.012011|
|         884|   -6.594046|   -8.632463|    0.824005|    0.012011|
|         885|   -6.602993|   -8.634667|    0.824005|    0.012011|
|         886|   -6.610856|   -8.636459|    0.824005|    0.012011|
|         887|   -6.617615|   -8.637795|    0.824005|    0.012011|
|         888|   -6.623286|   -8.638651|    0.824005|    0.012011|
|         889|   -6.627918|   -8.639029|    0.824005|    0.012011|
|         890|   -6.631587|   -8.638955|    0.824005|    0.012011|
|         891|   -6.634393|   -8.638477|    0.824005|    0.012011|
|         892|   -6.636449|   -8.637665|    0.824005|    0.012011|
|         893|   -6.637880|   -8.636604|    0.824005|    0.012011|
|         894|   -6.638809|   -8.635390|    0.824005|    0.012011|
|         895|   -6.639357|   -8.634126|    0.824005|    0.012011|
|         896|   -6.639637|   -8.632914|    0.824005|    0.012011|
|         897|   -6.639750|   -8.631854|    0.824005|    0.012011|
|         898|   -6.639787|   -8.631036|    0.824005|    0.012011|
|         899|   -6.639826|   -8.630542|    0.824005|    0.012011|
|         900|   -6.639931|   -8.630438|    0.824005|    0.012011|
|         901|   -6.640157|   -8.630777|    0.824005|    0.012011|
+-----------------------------------------------------------------------+
|Fixed CL Mode                           |Value                         |
+-----------------------------------------------------------------------+
|Current CL                              |0.824005                      |
|Target CL                               |0.824                         |
|Previous AOA                            |2.78045                       |
[...]
|        5298|   -6.044410|   -7.943700|    0.824238|    0.012015|
|        5299|   -6.051274|   -7.947402|    0.824238|    0.012015|
|        5300|   -6.057717|   -7.951142|    0.824238|    0.012015|
|        5301|   -6.063700|   -7.954933|    0.824238|    0.012015|
|        5302|   -6.069195|   -7.958784|    0.824238|    0.012015|
|        5303|   -6.074187|   -7.962705|    0.824238|    0.012015|
|        5304|   -6.078677|   -7.966702|    0.824239|    0.012014|
|        5305|   -6.082675|   -7.970778|    0.824239|    0.012014|
|        5306|   -6.086205|   -7.974935|    0.824239|    0.012014|
|        5307|   -6.089301|   -7.979175|    0.824239|    0.012014|
|        5308|   -6.092007|   -7.983498|    0.824239|    0.012014|
|        5309|   -6.094374|   -7.987904|    0.824239|    0.012014|
|        5310|   -6.096460|   -7.992394|    0.824239|    0.012014|
|        5311|   -6.098323|   -7.996974|    0.824239|    0.012014|
|        5312|   -6.100024|   -8.001645|    0.824239|    0.012014|
|        5313|   -6.101624|   -8.006408|    0.824240|    0.012014|
|        5314|   -6.103181|   -8.011266|    0.824240|    0.012014|
|        5315|   -6.104749|   -8.016220|    0.824240|    0.012014|
|        5316|   -6.106378|   -8.021273|    0.824240|    0.012014|
|        5317|   -6.108115|   -8.026426|    0.824240|    0.012014|
|        5318|   -6.109997|   -8.031683|    0.824240|    0.012015|
|        5319|   -6.112056|   -8.037047|    0.824240|    0.012015|
|        5320|   -6.114319|   -8.042522|    0.824240|    0.012015|
|        5321|   -6.116803|   -8.048109|    0.824241|    0.012015|
|        5322|   -6.119522|   -8.053810|    0.824241|    0.012015|
|        5323|   -6.122479|   -8.059627|    0.824241|    0.012015|
|        5324|   -6.125672|   -8.065557|    0.824241|    0.012015|
|        5325|   -6.129092|   -8.071600|    0.824241|    0.012015|
|        5326|   -6.132726|   -8.077752|    0.824241|    0.012015|
|        5327|   -6.136551|   -8.084007|    0.824242|    0.012015|
|        5328|   -6.140541|   -8.090360|    0.824242|    0.012015|
|        5329|   -6.144663|   -8.096804|    0.824242|    0.012015|
|        5330|   -6.148883|   -8.103329|    0.824242|    0.012015|
|        5331|   -6.153158|   -8.109926|    0.824242|    0.012015|
|        5332|   -6.157448|   -8.116585|    0.824242|    0.012016|
|        5333|   -6.161708|   -8.123295|    0.824242|    0.012016|
|        5334|   -6.165894|   -8.130043|    0.824243|    0.012016|
|        5335|   -6.169965|   -8.136820|    0.824243|    0.012016|
|        5336|   -6.173879|   -8.143612|    0.824243|    0.012016|
|        5337|   -6.177602|   -8.150410|    0.824243|    0.012016|
|        5338|   -6.181103|   -8.157203|    0.824243|    0.012016|
|        5339|   -6.184359|   -8.163982|    0.824243|    0.012016|
|        5340|   -6.187354|   -8.170745|    0.824243|    0.012016|
|        5341|   -6.190080|   -8.177483|    0.824244|    0.012016|
|        5342|   -6.192539|   -8.184194|    0.824244|    0.012016|
|        5343|   -6.194740|   -8.190871|    0.824244|    0.012016|
|        5344|   -6.196700|   -8.197510|    0.824244|    0.012017|
|        5345|   -6.198447|   -8.204108|    0.824244|    0.012017|
|        5346|   -6.200010|   -8.210665|    0.824244|    0.012017|
|        5347|   -6.201426|   -8.217182|    0.824244|    0.012017|
|        5348|   -6.202736|   -8.223658|    0.824244|    0.012017|
|        5349|   -6.203983|   -8.230095|    0.824244|    0.012017|
|        5350|   -6.205213|   -8.236495|    0.824244|    0.012017|
|        5351|   -6.206470|   -8.242863|    0.824245|    0.012017|
|        5352|   -6.207798|   -8.249201|    0.824245|    0.012017|
|        5353|   -6.209240|   -8.255514|    0.824245|    0.012017|
|        5354|   -6.210835|   -8.261808|    0.824245|    0.012017|
|        5355|   -6.212619|   -8.268087|    0.824245|    0.012017|
|        5356|   -6.214622|   -8.274354|    0.824245|    0.012017|
|        5357|   -6.216874|   -8.280611|    0.824245|    0.012017|
|        5358|   -6.219398|   -8.286859|    0.824245|    0.012017|
|        5359|   -6.222211|   -8.293098|    0.824245|    0.012017|
|        5360|   -6.225327|   -8.299324|    0.824245|    0.012017|
|        5361|   -6.228755|   -8.305534|    0.824245|    0.012017|
|        5362|   -6.232498|   -8.311723|    0.824245|    0.012017|
|        5363|   -6.236554|   -8.317886|    0.824245|    0.012017|
|        5364|   -6.240917|   -8.324017|    0.824245|    0.012017|
|        5365|   -6.245575|   -8.330108|    0.824245|    0.012017|
|        5366|   -6.250511|   -8.336153|    0.824245|    0.012017|
|        5367|   -6.255703|   -8.342145|    0.824245|    0.012017|
|        5368|   -6.261125|   -8.348079|    0.824245|    0.012017|
|        5369|   -6.266747|   -8.353949|    0.824245|    0.012017|
|        5370|   -6.272533|   -8.359750|    0.824245|    0.012017|
|        5371|   -6.278443|   -8.365480|    0.824245|    0.012017|
|        5372|   -6.284432|   -8.371136|    0.824245|    0.012017|
|        5373|   -6.290454|   -8.376718|    0.824245|    0.012017|
|        5374|   -6.296460|   -8.382226|    0.824245|    0.012017|
|        5375|   -6.302399|   -8.387663|    0.824245|    0.012017|
|        5376|   -6.308222|   -8.393032|    0.824245|    0.012017|
|        5377|   -6.313878|   -8.398340|    0.824245|    0.012017|
|        5378|   -6.319321|   -8.403593|    0.824245|    0.012017|
|        5379|   -6.324505|   -8.408800|    0.824245|    0.012016|
|        5380|   -6.329391|   -8.413971|    0.824245|    0.012016|
|        5381|   -6.333944|   -8.419115|    0.824245|    0.012016|
|        5382|   -6.338138|   -8.424243|    0.824245|    0.012016|
|        5383|   -6.341950|   -8.429367|    0.824245|    0.012016|
|        5384|   -6.345367|   -8.434497|    0.824245|    0.012016|
|        5385|   -6.348386|   -8.439645|    0.824245|    0.012016|
|        5386|   -6.351007|   -8.444823|    0.824245|    0.012016|
|        5387|   -6.353239|   -8.450038|    0.824245|    0.012016|
|        5388|   -6.355099|   -8.455300|    0.824245|    0.012016|
|        5389|   -6.356605|   -8.460614|    0.824245|    0.012016|
|        5390|   -6.357783|   -8.465983|    0.824245|    0.012015|
|        5391|   -6.358660|   -8.471409|    0.824245|    0.012015|
|        5392|   -6.359264|   -8.476890|    0.824245|    0.012015|
|        5393|   -6.359625|   -8.482423|    0.824245|    0.012015|
|        5394|   -6.359773|   -8.487999|    0.824245|    0.012015|
|        5395|   -6.359735|   -8.493610|    0.824245|    0.012015|
|        5396|   -6.359537|   -8.499240|    0.824246|    0.012015|
|        5397|   -6.359203|   -8.504875|    0.824246|    0.012015|
|        5398|   -6.358755|   -8.510495|    0.824246|    0.012015|
|        5399|   -6.358210|   -8.516081|    0.824246|    0.012015|
|        5400|   -6.357585|   -8.521610|    0.824246|    0.012014|
|        5401|   -6.356893|   -8.527059|    0.824246|    0.012014|
|        5402|   -6.356144|   -8.532406|    0.824246|    0.012014|
|        5403|   -6.355347|   -8.537628|    0.824247|    0.012014|
|        5404|   -6.354508|   -8.542702|    0.824247|    0.012014|
|        5405|   -6.353633|   -8.547607|    0.824247|    0.012014|
|        5406|   -6.352725|   -8.552326|    0.824247|    0.012014|
|        5407|   -6.351787|   -8.556843|    0.824247|    0.012014|
|        5408|   -6.350822|   -8.561144|    0.824247|    0.012014|
|        5409|   -6.349831|   -8.565222|    0.824248|    0.012014|
|        5410|   -6.348817|   -8.569069|    0.824248|    0.012014|
|        5411|   -6.347782|   -8.572684|    0.824248|    0.012013|
|        5412|   -6.346727|   -8.576068|    0.824248|    0.012013|
|        5413|   -6.345656|   -8.579225|    0.824248|    0.012013|
|        5414|   -6.344571|   -8.582161|    0.824248|    0.012013|
|        5415|   -6.343477|   -8.584886|    0.824248|    0.012013|
|        5416|   -6.342378|   -8.587409|    0.824249|    0.012013|
|        5417|   -6.341278|   -8.589741|    0.824249|    0.012013|
|        5418|   -6.340185|   -8.591893|    0.824249|    0.012013|
|        5419|   -6.339103|   -8.593875|    0.824249|    0.012013|
|        5420|   -6.338042|   -8.595700|    0.824249|    0.012013|
|        5421|   -6.337008|   -8.597375|    0.824249|    0.012013|
|        5422|   -6.336011|   -8.598911|    0.824249|    0.012013|
|        5423|   -6.335060|   -8.600315|    0.824250|    0.012013|
|        5424|   -6.334166|   -8.601594|    0.824250|    0.012013|
|        5425|   -6.333341|   -8.602754|    0.824250|    0.012013|
|        5426|   -6.332595|   -8.603799|    0.824250|    0.012013|
|        5427|   -6.331942|   -8.604737|    0.824250|    0.012013|
|        5428|   -6.331394|   -8.605570|    0.824250|    0.012013|
|        5429|   -6.330966|   -8.606305|    0.824250|    0.012013|
|        5430|   -6.330672|   -8.606948|    0.824250|    0.012013|
|        5431|   -6.330525|   -8.607505|    0.824250|    0.012013|
|        5432|   -6.330541|   -8.607983|    0.824250|    0.012013|
|        5433|   -6.330734|   -8.608393|    0.824250|    0.012013|
|        5434|   -6.331118|   -8.608743|    0.824251|    0.012013|
|        5435|   -6.331707|   -8.609045|    0.824251|    0.012013|
|        5436|   -6.332514|   -8.609312|    0.824251|    0.012013|
|        5437|   -6.333552|   -8.609558|    0.824251|    0.012013|
|        5438|   -6.334831|   -8.609797|    0.824251|    0.012013|
|        5439|   -6.336364|   -8.610046|    0.824251|    0.012013|
|        5440|   -6.338156|   -8.610319|    0.824251|    0.012013|
|        5441|   -6.340217|   -8.610633|    0.824251|    0.012013|
|        5442|   -6.342550|   -8.611004|    0.824251|    0.012013|
|        5443|   -6.345158|   -8.611447|    0.824251|    0.012013|
|        5444|   -6.348041|   -8.611977|    0.824251|    0.012013|
|        5445|   -6.351197|   -8.612608|    0.824251|    0.012013|
|        5446|   -6.354620|   -8.613350|    0.824251|    0.012013|
|        5447|   -6.358302|   -8.614217|    0.824251|    0.012013|
|        5448|   -6.362232|   -8.615216|    0.824251|    0.012013|
|        5449|   -6.366394|   -8.616356|    0.824251|    0.012014|
|        5450|   -6.370769|   -8.617643|    0.824251|    0.012014|
|        5451|   -6.375336|   -8.619081|    0.824251|    0.012014|
|        5452|   -6.380068|   -8.620673|    0.824251|    0.012014|
|        5453|   -6.384937|   -8.622421|    0.824251|    0.012014|
|        5454|   -6.389908|   -8.624324|    0.824251|    0.012014|
|        5455|   -6.394946|   -8.626380|    0.824251|    0.012014|
|        5456|   -6.400013|   -8.628588|    0.824250|    0.012014|
|        5457|   -6.405065|   -8.630943|    0.824250|    0.012014|
|        5458|   -6.410059|   -8.633441|    0.824250|    0.012014|
|        5459|   -6.414950|   -8.636076|    0.824250|    0.012014|
|        5460|   -6.419692|   -8.638842|    0.824250|    0.012014|
|        5461|   -6.424240|   -8.641732|    0.824250|    0.012014|
|        5462|   -6.428550|   -8.644740|    0.824250|    0.012015|
|        5463|   -6.432582|   -8.647857|    0.824250|    0.012015|
|        5464|   -6.436296|   -8.651076|    0.824250|    0.012015|
|        5465|   -6.439660|   -8.654391|    0.824250|    0.012015|
|        5466|   -6.442646|   -8.657793|    0.824250|    0.012015|
|        5467|   -6.445233|   -8.661276|    0.824249|    0.012015|
|        5468|   -6.447408|   -8.664831|    0.824249|    0.012015|
|        5469|   -6.449163|   -8.668450|    0.824249|    0.012015|
|        5470|   -6.450499|   -8.672128|    0.824249|    0.012015|
|        5471|   -6.451425|   -8.675856|    0.824249|    0.012015|
|        5472|   -6.451956|   -8.679628|    0.824249|    0.012015|
|        5473|   -6.452114|   -8.683435|    0.824249|    0.012015|
|        5474|   -6.451927|   -8.687272|    0.824248|    0.012015|
|        5475|   -6.451425|   -8.691131|    0.824248|    0.012015|
|        5476|   -6.450646|   -8.695004|    0.824248|    0.012015|
|        5477|   -6.449627|   -8.698885|    0.824248|    0.012015|
|        5478|   -6.448409|   -8.702767|    0.824248|    0.012015|
|        5479|   -6.447032|   -8.706642|    0.824248|    0.012015|
|        5480|   -6.445536|   -8.710503|    0.824247|    0.012016|
|        5481|   -6.443962|   -8.714345|    0.824247|    0.012016|
|        5482|   -6.442347|   -8.718160|    0.824247|    0.012016|
|        5483|   -6.440728|   -8.721942|    0.824247|    0.012016|
|        5484|   -6.439138|   -8.725685|    0.824247|    0.012016|
|        5485|   -6.437610|   -8.729384|    0.824247|    0.012016|
|        5486|   -6.436171|   -8.733036|    0.824246|    0.012016|
|        5487|   -6.434847|   -8.736635|    0.824246|    0.012016|
|        5488|   -6.433661|   -8.740179|    0.824246|    0.012016|
|        5489|   -6.432634|   -8.743666|    0.824246|    0.012016|
|        5490|   -6.431784|   -8.747095|    0.824246|    0.012016|
|        5491|   -6.431123|   -8.750467|    0.824246|    0.012016|
|        5492|   -6.430667|   -8.753782|    0.824246|    0.012016|
|        5493|   -6.430423|   -8.757043|    0.824246|    0.012016|
|        5494|   -6.430401|   -8.760254|    0.824245|    0.012015|
|        5495|   -6.430606|   -8.763419|    0.824245|    0.012015|
|        5496|   -6.431042|   -8.766542|    0.824245|    0.012015|
|        5497|   -6.431712|   -8.769630|    0.824245|    0.012015|
|        5498|   -6.432617|   -8.772689|    0.824245|    0.012015|
|        5499|   -6.433757|   -8.775726|    0.824245|    0.012001|
+-----------------------------------------------------------------------+
|Fixed CL Mode (Finite Difference)       |Value                         |
+-----------------------------------------------------------------------+
|Delta CL / Delta AoA                    |0.244649                      |
|Delta CD / Delta CL                     |0.0182983                     |
|Delta CMz / Delta CL                    |0.00805807                    |
+-----------------------------------------------------------------------+
Writing Flow Meta-Data file: flow.meta

----------------------------- Solver Exit -------------------------------

Maximum number of iterations reached (ITER = 5500) before convergence.
+-----------------------------------------------------------------------+
|      Convergence Field     |     Value    |   Criterion  |  Converged |
+-----------------------------------------------------------------------+
|                    rms[Rho]|      -6.43376|         < -12|          No|
+-----------------------------------------------------------------------+
-------------------------------------------------------------------------

--------------------------- Finalizing Solver ---------------------------
Deleted CNumerics container.
Deleted CIntegration container.
Deleted CSolver container.
Deleted CIteration container.
Deleted CInterface container.
Deleted CGeometry container.
Deleted CFreeFormDefBox class.
Deleted CSurfaceMovement class.
Deleted CVolumetricMovement class.
Deleted CConfig container.
Deleted nInst container.
Deleted COutput class.
-------------------------------------------------------------------------

------------------------- Exit Success (SU2_CFD) ------------------------


-------------------------------------------------------------------------
|    ___ _   _ ___                                                      |
|   / __| | | |_  )   Release 8.0.0 "Harrier"                           |
|   \__ \ |_| |/ /                                                      |
|   |___/\___//___|   Suite (Solution Exporting Code)                   |
|                                                                       |
-------------------------------------------------------------------------
| SU2 Project Website: https://su2code.github.io                        |
|                                                                       |
| The SU2 Project is maintained by the SU2 Foundation                   |
| (http://su2foundation.org)                                            |
-------------------------------------------------------------------------
| Copyright 2012-2023, SU2 Contributors                                 |
|                                                                       |
| SU2 is free software; you can redistribute it and/or                  |
| modify it under the terms of the GNU Lesser General Public            |
| License as published by the Free Software Foundation; either          |
| version 2.1 of the License, or (at your option) any later version.    |
|                                                                       |
| SU2 is distributed in the hope that it will be useful,                |
| but WITHOUT ANY WARRANTY; without even the implied warranty of        |
| MERCHANTABILITY or FITNESS FOR A PARTICULAR PURPOSE. See the GNU      |
| Lesser General Public License for more details.                       |
|                                                                       |
| You should have received a copy of the GNU Lesser General Public      |
| License along with SU2. If not, see <http://www.gnu.org/licenses/>.   |
-------------------------------------------------------------------------

----------------- Physical Case Definition ( Zone 0 ) -------------------
Input mesh file name: mesh_RAE2822_turb_deform.su2

-------------------- Output Information ( Zone 0 ) ----------------------
The tabular file format is CSV (.csv).
Flow variables file name: flow.

------------- Config File Boundary Information ( Zone 0 ) ---------------
+-----------------------------------------------------------------------+
|                        Marker Type|                        Marker Name|
+-----------------------------------------------------------------------+
|                          Far-field|                           FARFIELD|
+-----------------------------------------------------------------------+
|                     Heat flux wall|                            AIRFOIL|
+-----------------------------------------------------------------------+
Two dimensional problem.
13937 grid points before partitioning.
22842 volume elements before partitioning.
2 surface markers.
192 boundary elements in index 0 (Marker = AIRFOIL).
40 boundary elements in index 1 (Marker = FARFIELD).
Executing the partitioning functions.
Building the graph adjacency structure.
Calling ParMETIS... graph partitioning complete (831 edge cuts).
Distributing ParMETIS coloring.
Rebalancing vertices.
Rebalancing volume element connectivity.
Rebalancing markers and surface elements.
14875 vertices including ghost points. 
23674 interior elements including halo cells. 
18780 triangles.
4894 quadrilaterals.
Establishing MPI communication patterns.
Identify vertices.
Storing a mapping from global to local point index.

------------------------- Solution Postprocessing -----------------------
Reading and storing the solution from restart_flow.
Volume output fields: COORDINATES, SOLUTION
  Info: Ignoring the following screen output fields:
  RMS_DENSITY, RMS_NU_TILDE, LIFT, DRAG
Screen output fields: INNER_ITER
  Info: Ignoring the following history output groups:
  RMS_RES, AERO_COEFF
History output group(s): ITER
Warning: No (valid) fields chosen for convergence monitoring. Convergence monitoring inactive.
Warning: No (valid) fields chosen for time convergence monitoring. Time convergence monitoring inactive.
|Paraview                           |flow.vtu                           |
|Paraview surface                   |surface_flow.vtu                   |
|CSV file                           |surface_flow.csv                   |

------------------------- Finalize Solver -------------------------
Deleted CGeometry container.
Deleted CSolver class.
Deleted CConfig container.
Deleted COutput class.

Completed in 0.019141 seconds on 6 cores.

------------------------- Exit Success (SU2_SOL) ------------------------

