
-------------------------------------------------------------------------
|    ___ _   _ ___                                                      |
|   / __| | | |_  )   Release 8.0.0 "Harrier"                           |
|   \__ \ |_| |/ /                                                      |
|   |___/\___//___|   Suite (Computational Fluid Dynamics Code)         |
|                                                                       |
-------------------------------------------------------------------------
| SU2 Project Website: https://su2code.github.io                        |
|                                                                       |
| The SU2 Project is maintained by the SU2 Foundation                   |
| (http://su2foundation.org)                                            |
-------------------------------------------------------------------------
| Copyright 2012-2023, SU2 Contributors                                 |
|                                                                       |
| SU2 is free software; you can redistribute it and/or                  |
| modify it under the terms of the GNU Lesser General Public            |
| License as published by the Free Software Foundation; either          |
| version 2.1 of the License, or (at your option) any later version.    |
|                                                                       |
| SU2 is distributed in the hope that it will be useful,                |
| but WITHOUT ANY WARRANTY; without even the implied warranty of        |
| MERCHANTABILITY or FITNESS FOR A PARTICULAR PURPOSE. See the GNU      |
| Lesser General Public License for more details.                       |
|                                                                       |
| You should have received a copy of the GNU Lesser General Public      |
| License along with SU2. If not, see <http://www.gnu.org/licenses/>.   |
-------------------------------------------------------------------------

Parsing config file for zone 0

----------------- Physical Case Definition ( Zone 0 ) -------------------
Compressible RANS equations.
Turbulence model: Spalart-Allmaras-noft2
Hybrid RANS/LES: No Hybrid RANS/LES
Mach number: 0.734.
Angle of attack (AoA): 2.31 deg, and angle of sideslip (AoS): 0 deg.
Reynolds number: 6.5e+06. Reference length 1.
Fixed CL mode, target value: 0.824.
Reading and writing binary SU2 native restart files.
Read flow solution from: solution_flow.dat.
Dimensional simulation.
The reference area is 1 m^2.
The semi-span will be computed using the max y(3D) value.
The reference length is 1 m.
Reference origin for moment evaluation is (0.25, 0, 0).
Surface(s) where the force coefficients are evaluated: AIRFOIL.

Surface(s) plotted in the output file: AIRFOIL.
Surface(s) affected by the design variables: AIRFOIL.
Input mesh file name: mesh_RAE2822_turb_deform.su2

--------------- Space Numerical Integration ( Zone 0 ) ------------------
Jameson-Schmidt-Turkel scheme (2nd order in space) for the flow inviscid terms.
JST viscous coefficients (2nd & 4th): 0.5, 0.02.
The method includes a grid stretching correction (p = 0.3).
Scalar upwind solver for the turbulence model.
First order integration in space.
Average of gradients with correction (viscous flow terms).
Average of gradients with correction (viscous turbulence terms).
Gradient for viscous and source terms: inverse-distance weighted Least-Squares.

--------------- Time Numerical Integration  ( Zone 0 ) ------------------
Local time stepping (steady state simulation).
Euler implicit method for the flow equations.
FGMRES is used for solving the linear system.
Using a ILU(0) preconditioning.
Convergence criteria of the linear solver: 1e-06.
Max number of linear iterations: 10.
No CFL adaptation.
Courant-Friedrichs-Lewy number:       10
Euler implicit time integration for the turbulence model.

------------------ Convergence Criteria  ( Zone 0 ) ---------------------
Maximum number of solver subiterations: 5500.
Begin convergence monitoring at iteration 10.
Residual minimum value: 1e-12.
Cauchy series min. value: 1e-06.
Number of Cauchy elements: 100.
Begin windowed time average at iteration 0.

-------------------- Output Information ( Zone 0 ) ----------------------
File writing frequency: 
+------------------------------------+
|                     File| Frequency|
+------------------------------------+
|                  RESTART|     10000|
|                 PARAVIEW|     10000|
|         SURFACE_PARAVIEW|     10000|
|              SURFACE_CSV|     10000|
+------------------------------------+
Writing the convergence history file every 1 inner iterations.
Writing the screen convergence history every 1 inner iterations.
The tabular file format is CSV (.csv).
Convergence history file name: history_direct.
Forces breakdown file name: forces_breakdown.dat.
Surface file name: surface_flow.
Volume file name: flow.
Restart file name: restart_flow.dat.

------------- Config File Boundary Information ( Zone 0 ) ---------------
+-----------------------------------------------------------------------+
|                        Marker Type|                        Marker Name|
+-----------------------------------------------------------------------+
|                          Far-field|                           FARFIELD|
+-----------------------------------------------------------------------+
|                     Heat flux wall|                            AIRFOIL|
+-----------------------------------------------------------------------+

-------------------- Output Preprocessing ( Zone 0 ) --------------------

WARNING: SURFACE_PRESSURE_DROP can only be computed for at least 2 surfaces (outlet, inlet, ...)

Screen output fields: INNER_ITER, RMS_DENSITY, RMS_NU_TILDE, LIFT, DRAG
History output group(s): ITER, RMS_RES, AERO_COEFF
Convergence field(s): RMS_DENSITY
Warning: No (valid) fields chosen for time convergence monitoring. Time convergence monitoring inactive.
Volume output fields: COORDINATES, SOLUTION, PRIMITIVE

------------------- Geometry Preprocessing ( Zone 0 ) -------------------
Two dimensional problem.
13937 grid points before partitioning.
22842 volume elements before partitioning.
2 surface markers.
192 boundary elements in index 0 (Marker = AIRFOIL).
40 boundary elements in index 1 (Marker = FARFIELD).
Executing the partitioning functions.
Building the graph adjacency structure.
Calling ParMETIS... graph partitioning complete (831 edge cuts).
Distributing ParMETIS coloring.
Rebalancing vertices.
Rebalancing volume element connectivity.
Rebalancing markers and surface elements.
14875 vertices including ghost points. 
23674 interior elements including halo cells. 
18780 triangles.
4894 quadrilaterals.
Establishing MPI communication patterns.
Setting point connectivity.
Renumbering points (Reverse Cuthill McKee Ordering).
Recomputing point connectivity.
Setting element connectivity.
Checking the numerical grid orientation.
All volume elements are correctly orientend.
All surface elements are correctly orientend.
Identifying edges and vertices.
Setting the control volume structure.
Area of the computational grid: 32209.9.
Searching for the closest normal neighbors to the surfaces.
Storing a mapping from global to local point index.
Compute the surface curvature.
Max K: 210.195. Mean K: 8.41665. Standard deviation K: 27.5367.
Checking for periodicity.
Computing mesh quality statistics for the dual control volumes.
+--------------------------------------------------------------+
|           Mesh Quality Metric|        Minimum|        Maximum|
+--------------------------------------------------------------+
|    Orthogonality Angle (deg.)|        74.4139|        89.9998|
|     CV Face Area Aspect Ratio|        1.00105|         3359.1|
|           CV Sub-Volume Ratio|        1.00066|        1220.19|
+--------------------------------------------------------------+
Finding max control volume width.
Communicating number of neighbors.
Wetted area = 2.02128 m.
Area projection in the x-plane = 0.128202 m, y-plane = 0.995873 m.
Max. coordinate in the x-direction = 1 m, y-direction = 0.0614775 m.
Min. coordinate in the x-direction = 0 m, y-direction = -0.0627676 m.
Computing wall distances.

-------------------- Solver Preprocessing ( Zone 0 ) --------------------
WARNING: AoA in the solution file (2.76524 deg.) +
         AoA offset in mesh file (0 deg.) = 2.76524 deg.
WARNING: SU2 will use the dCD/dCL provided in the direct solution file: 0.0209083.
WARNING: SU2 will use the dCMz/dCL provided in the direct solution file: 0.0185072.
Viscous flow: Computing pressure using the ideal gas law
based on the free-stream temperature and a density computed
from the Reynolds number.
Force coefficients computed using free-stream values.

-- Models:
+------------------------------------------------------------------------------+
|          Viscosity Model|        Conductivity Model|              Fluid Model|
+------------------------------------------------------------------------------+
|               SUTHERLAND|          CONSTANT_PRANDTL|             STANDARD_AIR|
+------------------------------------------------------------------------------+
-- Fluid properties:
+------------------------------------------------------------------------------+
|                  Name|    Dim. value|    Ref. value|      Unit|Non-dim. value|
+------------------------------------------------------------------------------+
|        Ref. Viscosity|     1.716e-05|             1|   N.s/m^2|     1.716e-05|
|      Sutherland Temp.|        273.15|             1|         K|        273.15|
|     Sutherland Const.|         110.4|             1|         K|         110.4|
+------------------------------------------------------------------------------+
|        Prandtl (Lam.)|             -|             -|         -|          0.71|
|       Prandtl (Turb.)|             -|             -|         -|           0.9|
+------------------------------------------------------------------------------+
|          Gas Constant|       287.058|             1|  N.m/kg.K|       287.058|
|      Spec. Heat Ratio|             -|             -|         -|           1.4|
+------------------------------------------------------------------------------+
-- Initial and free-stream conditions:
+------------------------------------------------------------------------------+
|                  Name|    Dim. value|    Ref. value|      Unit|Non-dim. value|
+------------------------------------------------------------------------------+
|       Static Pressure|         38515|             1|        Pa|         38515|
|               Density|      0.465631|             1|    kg/m^3|      0.465631|
|           Temperature|        288.15|             1|         K|        288.15|
|          Total Energy|        237984|             1|   m^2/s^2|        237984|
|            Velocity-X|       249.487|             1|       m/s|       249.487|
|            Velocity-Y|       12.0502|             1|       m/s|       12.0502|
|    Velocity Magnitude|       249.778|             1|       m/s|       249.778|
+------------------------------------------------------------------------------+
|             Viscosity|    1.7893e-05|             1|   N.s/m^2|    1.7893e-05|
|          Conductivity|             -|             1|   W/m^2.K|             -|
|     Turb. Kin. Energy|       233.959|             1|   m^2/s^2|       233.959|
|     Spec. Dissipation|        608834|             1|       1/s|        608834|
+------------------------------------------------------------------------------+
|           Mach Number|             -|             -|         -|         0.734|
|       Reynolds Number|             -|             -|         -|       6.5e+06|
+------------------------------------------------------------------------------+
Initialize Jacobian structure (Navier-Stokes). MG level: 0.
Initialize Jacobian structure (SA model).

------------------- Numerics Preprocessing ( Zone 0 ) -------------------

----------------- Integration Preprocessing ( Zone 0 ) ------------------

------------------- Iteration Preprocessing ( Zone 0 ) ------------------
Euler/Navier-Stokes/RANS fluid iteration.

------------------------------ Begin Solver -----------------------------

Simulation Run using the Single-zone Driver
WARNING: SU2 was not compiled for an AVX-capable architecture. Performance could be better,
         see https://su2code.github.io/docs_v7/Build-SU2-Linux-MacOS/#compiler-optimizations
+----------------------------------------------------------------+
|  Inner_Iter|    rms[Rho]|     rms[nu]|          CL|          CD|
+----------------------------------------------------------------+
|           0|   -5.037097|   -6.447384|    0.824076|    0.011977|
|           1|   -5.093252|   -6.546544|    0.824114|    0.011990|
|           2|   -5.152287|   -6.673788|    0.824124|    0.011998|
|           3|   -5.196557|   -6.828233|    0.824117|    0.012002|
|           4|   -5.226545|   -6.993210|    0.824104|    0.012002|
|           5|   -5.244416|   -7.110859|    0.824093|    0.012002|
|           6|   -5.252381|   -7.130681|    0.824087|    0.012001|
|           7|   -5.253330|   -7.100364|    0.824085|    0.012002|
|           8|   -5.249945|   -7.066080|    0.824089|    0.012003|
|           9|   -5.243927|   -7.033680|    0.824095|    0.012006|
|          10|   -5.236074|   -6.999418|    0.824103|    0.012009|
|          11|   -5.226826|   -6.964699|    0.824113|    0.012014|
|          12|   -5.216643|   -6.935493|    0.824123|    0.012019|
|          13|   -5.206063|   -6.917513|    0.824133|    0.012025|
|          14|   -5.195583|   -6.913929|    0.824142|    0.012031|
|          15|   -5.185577|   -6.925359|    0.824149|    0.012037|
|          16|   -5.176313|   -6.950048|    0.824155|    0.012044|
|          17|   -5.168012|   -6.983275|    0.824158|    0.012050|
|          18|   -5.160911|   -7.016334|    0.824158|    0.012056|
|          19|   -5.155244|   -7.037496|    0.824155|    0.012061|
|          20|   -5.151196|   -7.038284|    0.824149|    0.012066|
|          21|   -5.148836|   -7.020617|    0.824141|    0.012070|
|          22|   -5.148076|   -6.994411|    0.824130|    0.012074|
|          23|   -5.148679|   -6.969393|    0.824118|    0.012077|
|          24|   -5.150304|   -6.951250|    0.824103|    0.012079|
|          25|   -5.152573|   -6.942089|    0.824088|    0.012081|
|          26|   -5.155140|   -6.941758|    0.824072|    0.012082|
|          27|   -5.157729|   -6.948700|    0.824056|    0.012082|
|          28|   -5.160146|   -6.960388|    0.824040|    0.012082|
|          29|   -5.162251|   -6.973673|    0.824024|    0.012081|
|          30|   -5.163926|   -6.985360|    0.824009|    0.012080|
|          31|   -5.165038|   -6.993040|    0.823994|    0.012078|
|          32|   -5.165441|   -6.995851|    0.823980|    0.012076|
|          33|   -5.164989|   -6.994633|    0.823967|    0.012074|
|          34|   -5.163578|   -6.991334|    0.823954|    0.012071|
|          35|   -5.161180|   -6.988170|    0.823942|    0.012068|
|          36|   -5.157861|   -6.986999|    0.823931|    0.012064|
|          37|   -5.153772|   -6.989090|    0.823920|    0.012061|
|          38|   -5.149119|   -6.995124|    0.823909|    0.012057|
|          39|   -5.144122|   -7.005292|    0.823899|    0.012053|
|          40|   -5.138981|   -7.019375|    0.823889|    0.012049|
|          41|   -5.133854|   -7.036783|    0.823880|    0.012045|
|          42|   -5.128846|   -7.056544|    0.823870|    0.012041|
|          43|   -5.124010|   -7.077276|    0.823861|    0.012037|
|          44|   -5.119357|   -7.097196|    0.823853|    0.012033|
|          45|   -5.114860|   -7.114273|    0.823844|    0.012029|
|          46|   -5.110466|   -7.126564|    0.823837|    0.012026|
|          47|   -5.106098|   -7.132727|    0.823830|    0.012022|
|          48|   -5.101668|   -7.132469|    0.823823|    0.012019|
|          49|   -5.097082|   -7.126639|    0.823818|    0.012016|
|          50|   -5.092256|   -7.116904|    0.823813|    0.012013|
|          51|   -5.087124|   -7.105217|    0.823810|    0.012010|
|          52|   -5.081647|   -7.093365|    0.823807|    0.012007|
|          53|   -5.075821|   -7.082742|    0.823806|    0.012004|
|          54|   -5.069676|   -7.074290|    0.823806|    0.012001|
|          55|   -5.063271|   -7.068550|    0.823807|    0.011998|
|          56|   -5.056688|   -7.065743|    0.823810|    0.011996|
|          57|   -5.050017|   -7.065845|    0.823813|    0.011993|
|          58|   -5.043347|   -7.068656|    0.823818|    0.011991|
|          59|   -5.036759|   -7.073849|    0.823824|    0.011989|
|          60|   -5.030314|   -7.081015|    0.823830|    0.011986|
|          61|   -5.024055|   -7.089696|    0.823838|    0.011984|
|          62|   -5.018005|   -7.099420|    0.823846|    0.011982|
|          63|   -5.012171|   -7.109720|    0.823855|    0.011980|
|          64|   -5.006549|   -7.120165|    0.823864|    0.011978|
|          65|   -5.001129|   -7.130366|    0.823873|    0.011976|
|          66|   -4.995901|   -7.139989|    0.823882|    0.011974|
|          67|   -4.990859|   -7.148764|    0.823891|    0.011972|
|          68|   -4.986004|   -7.156493|    0.823900|    0.011971|
|          69|   -4.981342|   -7.163055|    0.823908|    0.011970|
|          70|   -4.976888|   -7.168414|    0.823916|    0.011968|
|          71|   -4.972660|   -7.172613|    0.823924|    0.011967|
|          72|   -4.968676|   -7.175764|    0.823930|    0.011966|
|          73|   -4.964952|   -7.178019|    0.823937|    0.011965|
|          74|   -4.961499|   -7.179549|    0.823942|    0.011964|
|          75|   -4.958320|   -7.180504|    0.823947|    0.011963|
|          76|   -4.955412|   -7.180993|    0.823951|    0.011962|
|          77|   -4.952760|   -7.181068|    0.823955|    0.011962|
|          78|   -4.950343|   -7.180727|    0.823958|    0.011961|
|          79|   -4.948135|   -7.179930|    0.823960|    0.011960|
|          80|   -4.946105|   -7.178629|    0.823962|    0.011960|
|          81|   -4.944224|   -7.176798|    0.823964|    0.011959|
|          82|   -4.942464|   -7.174451|    0.823966|    0.011959|
|          83|   -4.940802|   -7.171664|    0.823967|    0.011959|
|          84|   -4.939223|   -7.168573|    0.823968|    0.011958|
|          85|   -4.937720|   -7.165361|    0.823969|    0.011958|
|          86|   -4.936297|   -7.162242|    0.823970|    0.011958|
|          87|   -4.934965|   -7.159431|    0.823970|    0.011958|
|          88|   -4.933745|   -7.157128|    0.823971|    0.011958|
|          89|   -4.932666|   -7.155494|    0.823972|    0.011958|
|          90|   -4.931761|   -7.154645|    0.823973|    0.011958|
|          91|   -4.931068|   -7.154649|    0.823974|    0.011958|
|          92|   -4.930626|   -7.155526|    0.823975|    0.011959|
|          93|   -4.930473|   -7.157254|    0.823976|    0.011959|
|          94|   -4.930644|   -7.159779|    0.823977|    0.011960|
|          95|   -4.931170|   -7.163024|    0.823978|    0.011961|
|          96|   -4.932076|   -7.166894|    0.823980|    0.011961|
|          97|   -4.933379|   -7.171293|    0.823982|    0.011962|
|          98|   -4.935085|   -7.176124|    0.823984|    0.011963|
|          99|   -4.937193|   -7.181296|    0.823986|    0.011964|
|         100|   -4.939685|   -7.186728|    0.823988|    0.011966|
|         101|   -4.942536|   -7.192351|    0.823991|    0.011968|
+-----------------------------------------------------------------------+
|Fixed CL Mode                           |Value                         |
+-----------------------------------------------------------------------+
|Current CL                              |0.823991                      |
|Target CL                               |0.824                         |
|Previous AOA                            |2.76524                       |
|Changed AoA by                          |5.79676e-05                   |
+-----------------------------------------------------------------------+
+----------------------------------------------------------------+
|  Inner_Iter|    rms[Rho]|     rms[nu]|          CL|          CD|
+----------------------------------------------------------------+
|         102|   -4.412843|   -7.197765|    0.823994|    0.011969|
|         103|   -4.739626|   -7.203821|    0.823996|    0.011971|
|         104|   -4.886092|   -7.209752|    0.823999|    0.011972|
|         105|   -4.913001|   -7.215677|    0.824002|    0.011974|
|         106|   -4.920762|   -7.221610|    0.824005|    0.011976|
|         107|   -4.928801|   -7.227550|    0.824008|    0.011978|
|         108|   -4.937236|   -7.233499|    0.824010|    0.011979|
|         109|   -4.943990|   -7.239457|    0.824013|    0.011981|
|         110|   -4.948596|   -7.245429|    0.824015|    0.011983|
|         111|   -4.951882|   -7.251419|    0.824018|    0.011985|
|         112|   -4.954614|   -7.257425|    0.824020|    0.011987|
|         113|   -4.957020|   -7.263447|    0.824021|    0.011989|
|         114|   -4.959046|   -7.269474|    0.824023|    0.011990|
|         115|   -4.960638|   -7.275489|    0.824024|    0.011992|
|         116|   -4.961804|   -7.281466|    0.824025|    0.011994|
|         117|   -4.962548|   -7.287376|    0.824025|    0.011995|
|         118|   -4.962836|   -7.293186|    0.824026|    0.011997|
|         119|   -4.962622|   -7.298869|    0.824026|    0.011998|
|         120|   -4.961913|   -7.304400|    0.824025|    0.011999|
|         121|   -4.960799|   -7.309766|    0.824025|    0.012001|
|         122|   -4.959434|   -7.314962|    0.824024|    0.012002|
|         123|   -4.957971|   -7.320000|    0.824023|    0.012003|
|         124|   -4.956517|   -7.324905|    0.824022|    0.012004|
|         125|   -4.955115|   -7.329713|    0.824021|    0.012005|
|         126|   -4.953751|   -7.334473|    0.824020|    0.012006|
|         127|   -4.952393|   -7.339238|    0.824019|    0.012006|
|         128|   -4.951006|   -7.344062|    0.824018|    0.012007|
|         129|   -4.949573|   -7.348997|    0.824017|    0.012008|
|         130|   -4.948093|   -7.354088|    0.824016|    0.012008|
|         131|   -4.946576|   -7.359366|    0.824015|    0.012009|
|         132|   -4.945038|   -7.364850|    0.824014|    0.012010|
|         133|   -4.943494|   -7.370539|    0.824013|    0.012010|
|         134|   -4.941949|   -7.376415|    0.824012|    0.012011|
|         135|   -4.940393|   -7.382436|    0.824012|    0.012011|
|         136|   -4.938804|   -7.388541|    0.824011|    0.012012|
|         137|   -4.937147|   -7.394653|    0.824011|    0.012012|
|         138|   -4.935382|   -7.400683|    0.824011|    0.012013|
|         139|   -4.933466|   -7.406533|    0.824011|    0.012013|
|         140|   -4.931366|   -7.412107|    0.824011|    0.012014|
|         141|   -4.929059|   -7.417313|    0.824011|    0.012014|
|         142|   -4.926535|   -7.422071|    0.824011|    0.012015|
|         143|   -4.923801|   -7.426322|    0.824011|    0.012015|
|         144|   -4.920879|   -7.430027|    0.824012|    0.012016|
|         145|   -4.917798|   -7.433171|    0.824012|    0.012016|
|         146|   -4.914595|   -7.435770|    0.824012|    0.012017|
|         147|   -4.911310|   -7.437860|    0.824012|    0.012017|
|         148|   -4.907979|   -7.439505|    0.824012|    0.012017|
|         149|   -4.904635|   -7.440782|    0.824011|    0.012018|
|         150|   -4.901306|   -7.441777|    0.824011|    0.012018|
|         151|   -4.898013|   -7.442583|    0.824011|    0.012018|
|         152|   -4.894775|   -7.443289|    0.824010|    0.012018|
|         153|   -4.891605|   -7.443974|    0.824010|    0.012018|
|         154|   -4.888516|   -7.444705|    0.824009|    0.012019|
|         155|   -4.885520|   -7.445530|    0.824008|    0.012019|
|         156|   -4.882628|   -7.446477|    0.824007|    0.012019|
|         157|   -4.879852|   -7.447555|    0.824006|    0.012018|
|         158|   -4.877205|   -7.448756|    0.824005|    0.012018|
|         159|   -4.874697|   -7.450054|    0.824004|    0.012018|
|         160|   -4.872340|   -7.451409|    0.824003|    0.012018|
|         161|   -4.870146|   -7.452773|    0.824001|    0.012018|
|         162|   -4.868125|   -7.454087|    0.824000|    0.012017|
|         163|   -4.866283|   -7.455297|    0.823999|    0.012017|
|         164|   -4.864627|   -7.456353|    0.823998|    0.012016|
|         165|   -4.863161|   -7.457219|    0.823997|    0.012016|
|         166|   -4.861885|   -7.457870|    0.823996|    0.012015|
|         167|   -4.860800|   -7.458298|    0.823995|    0.012015|
|         168|   -4.859900|   -7.458521|    0.823994|    0.012014|
|         169|   -4.859178|   -7.458571|    0.823993|    0.012014|
|         170|   -4.858625|   -7.458497|    0.823993|    0.012013|
|         171|   -4.858230|   -7.458359|    0.823992|    0.012013|
|         172|   -4.857977|   -7.458224|    0.823992|    0.012012|
|         173|   -4.857854|   -7.458164|    0.823992|    0.012011|
|         174|   -4.857842|   -7.458250|    0.823992|    0.012011|
|         175|   -4.857929|   -7.458547|    0.823992|    0.012010|
|         176|   -4.858099|   -7.459116|    0.823992|    0.012009|
|         177|   -4.858342|   -7.460004|    0.823993|    0.012009|
|         178|   -4.858648|   -7.461245|    0.823993|    0.012008|
|         179|   -4.859014|   -7.462861|    0.823994|    0.012007|
|         180|   -4.859440|   -7.464855|    0.823995|    0.012007|
|         181|   -4.859932|   -7.467218|    0.823995|    0.012006|
|         182|   -4.860501|   -7.469924|    0.823996|    0.012005|
|         183|   -4.861163|   -7.472935|    0.823997|    0.012005|
|         184|   -4.861938|   -7.476200|    0.823998|    0.012004|
|         185|   -4.862850|   -7.479661|    0.823999|    0.012003|
|         186|   -4.863927|   -7.483254|    0.824000|    0.012003|
|         187|   -4.865197|   -7.486911|    0.824001|    0.012002|
|         188|   -4.866688|   -7.490567|    0.824003|    0.012001|
|         189|   -4.868425|   -7.494160|    0.824004|    0.012001|
|         190|   -4.870433|   -7.497635|    0.824005|    0.012000|
|         191|   -4.872727|   -7.500951|    0.824006|    0.011999|
|         192|   -4.875320|   -7.504078|    0.824007|    0.011999|
|         193|   -4.878215|   -7.507002|    0.824008|    0.011998|
|         194|   -4.881406|   -7.509725|    0.824009|    0.011997|
|         195|   -4.884876|   -7.512262|    0.824010|    0.011997|
|         196|   -4.888597|   -7.514640|    0.824011|    0.011996|
|         197|   -4.892532|   -7.516900|    0.824012|    0.011995|
|         198|   -4.896631|   -7.519093|    0.824013|    0.011995|
|         199|   -4.900834|   -7.521273|    0.824014|    0.011994|
|         200|   -4.905072|   -7.523498|    0.824015|    0.011993|
|         201|   -4.909271|   -7.525825|    0.824016|    0.011992|
+-----------------------------------------------------------------------+
|Fixed CL Mode                           |Value                         |
+-----------------------------------------------------------------------+
|Current CL                              |0.824016                      |
|Target CL                               |0.824                         |
|Previous AOA                            |2.76529                       |
|Changed AoA by                          |-7.48522e-05                  |
+-----------------------------------------------------------------------+
+----------------------------------------------------------------+
|  Inner_Iter|    rms[Rho]|     rms[nu]|          CL|          CD|
+----------------------------------------------------------------+
|         202|   -4.306347|   -7.524221|    0.824017|    0.011991|
|         203|   -4.635994|   -7.528488|    0.824018|    0.011990|
|         204|   -4.779571|   -7.531800|    0.824018|    0.011990|
|         205|   -4.810892|   -7.535270|    0.824019|    0.011989|
|         206|   -4.831734|   -7.539069|    0.824020|    0.011989|
|         207|   -4.856590|   -7.543223|    0.824021|    0.011988|
|         208|   -4.881433|   -7.547716|    0.824022|    0.011988|
|         209|   -4.901001|   -7.552519|    0.824022|    0.011988|
|         210|   -4.913534|   -7.557586|    0.824023|    0.011987|
|         211|   -4.920512|   -7.562861|    0.824024|    0.011987|
|         212|   -4.924063|   -7.568286|    0.824025|    0.011987|
|         213|   -4.925608|   -7.573802|    0.824025|    0.011986|
|         214|   -4.925998|   -7.579351|    0.824026|    0.011986|
|         215|   -4.925905|   -7.584866|    0.824027|    0.011986|
|         216|   -4.925905|   -7.590280|    0.824028|    0.011986|
|         217|   -4.926381|   -7.595520|    0.824028|    0.011986|
|         218|   -4.927460|   -7.600518|    0.824029|    0.011986|
|         219|   -4.929089|   -7.605213|    0.824030|    0.011986|
|         220|   -4.931166|   -7.609551|    0.824031|    0.011986|
|         221|   -4.933659|   -7.613491|    0.824031|    0.011986|
|         222|   -4.936629|   -7.617000|    0.824032|    0.011986|
|         223|   -4.940198|   -7.620066|    0.824033|    0.011986|
|         224|   -4.944488|   -7.622693|    0.824033|    0.011987|
|         225|   -4.949581|   -7.624904|    0.824034|    0.011987|
|         226|   -4.955515|   -7.626740|    0.824035|    0.011987|
|         227|   -4.962301|   -7.628260|    0.824035|    0.011988|
|         228|   -4.969936|   -7.629536|    0.824036|    0.011988|
|         229|   -4.978412|   -7.630647|    0.824037|    0.011989|
|         230|   -4.987717|   -7.631682|    0.824037|    0.011989|
|         231|   -4.997834|   -7.632731|    0.824038|    0.011990|
|         232|   -5.008739|   -7.633879|    0.824039|    0.011990|
|         233|   -5.020406|   -7.635209|    0.824039|    0.011991|
|         234|   -5.032799|   -7.636796|    0.824040|    0.011991|
|         235|   -5.045870|   -7.638707|    0.824041|    0.011992|
|         236|   -5.059552|   -7.640997|    0.824042|    0.011992|
|         237|   -5.073753|   -7.643711|    0.824042|    0.011993|
|         238|   -5.088353|   -7.646876|    0.824043|    0.011994|
|         239|   -5.103199|   -7.650510|    0.824044|    0.011994|
|         240|   -5.118110|   -7.654612|    0.824045|    0.011995|
|         241|   -5.132877|   -7.659169|    0.824046|    0.011996|
|         242|   -5.147280|   -7.664155|    0.824046|    0.011996|
|         243|   -5.161094|   -7.669530|    0.824047|    0.011997|
|         244|   -5.174111|   -7.675241|    0.824048|    0.011998|
|         245|   -5.186152|   -7.681224|    0.824049|    0.011998|
|         246|   -5.197076|   -7.687404|    0.824050|    0.011999|
|         247|   -5.206788|   -7.693696|    0.824050|    0.012000|
|         248|   -5.215239|   -7.700010|    0.824051|    0.012000|
|         249|   -5.222417|   -7.706254|    0.824052|    0.012001|
|         250|   -5.228348|   -7.712334|    0.824053|    0.012001|
|         251|   -5.233082|   -7.718165|    0.824053|    0.012002|
|         252|   -5.236700|   -7.723677|    0.824054|    0.012003|
|         253|   -5.239298|   -7.728806|    0.824054|    0.012003|
|         254|   -5.240995|   -7.733511|    0.824054|    0.012004|
|         255|   -5.241920|   -7.737772|    0.824055|    0.012004|
|         256|   -5.242212|   -7.741589|    0.824055|    0.012005|
|         257|   -5.242012|   -7.744985|    0.824055|    0.012005|
|         258|   -5.241457|   -7.748001|    0.824055|    0.012006|
|         259|   -5.240676|   -7.750695|    0.824055|    0.012006|
|         260|   -5.239784|   -7.753137|    0.824054|    0.012007|
|         261|   -5.238881|   -7.755403|    0.824054|    0.012007|
|         262|   -5.238052|   -7.757564|    0.824053|    0.012007|
|         263|   -5.237366|   -7.759689|    0.824053|    0.012008|
|         264|   -5.236880|   -7.761833|    0.824052|    0.012008|
|         265|   -5.236640|   -7.764040|    0.824051|    0.012008|
|         266|   -5.236681|   -7.766334|    0.824050|    0.012008|
|         267|   -5.237032|   -7.768719|    0.824049|    0.012008|
|         268|   -5.237713|   -7.771176|    0.824048|    0.012009|
|         269|   -5.238743|   -7.773661|    0.824047|    0.012009|
|         270|   -5.240133|   -7.776110|    0.824045|    0.012009|
|         271|   -5.241892|   -7.778438|    0.824044|    0.012009|
|         272|   -5.244026|   -7.780540|    0.824043|    0.012009|
|         273|   -5.246537|   -7.782304|    0.824041|    0.012009|
|         274|   -5.249424|   -7.783613|    0.824040|    0.012009|
|         275|   -5.252685|   -7.784355|    0.824038|    0.012009|
|         276|   -5.256314|   -7.784431|    0.824037|    0.012009|
|         277|   -5.260303|   -7.783765|    0.824035|    0.012008|
|         278|   -5.264643|   -7.782313|    0.824034|    0.012008|
|         279|   -5.269323|   -7.780064|    0.824032|    0.012008|
|         280|   -5.274329|   -7.777043|    0.824031|    0.012008|
|         281|   -5.279644|   -7.773315|    0.824030|    0.012008|
|         282|   -5.285250|   -7.768973|    0.824028|    0.012007|
|         283|   -5.291126|   -7.764141|    0.824027|    0.012007|
|         284|   -5.297249|   -7.758961|    0.824026|    0.012007|
|         285|   -5.303593|   -7.753583|    0.824025|    0.012007|
|         286|   -5.310129|   -7.748162|    0.824024|    0.012006|
|         287|   -5.316825|   -7.742847|    0.824023|    0.012006|
|         288|   -5.323650|   -7.737775|    0.824022|    0.012006|
|         289|   -5.330568|   -7.733072|    0.824022|    0.012005|
|         290|   -5.337542|   -7.728845|    0.824021|    0.012005|
|         291|   -5.344535|   -7.725187|    0.824021|    0.012004|
|         292|   -5.351511|   -7.722171|    0.824020|    0.012004|
|         293|   -5.358432|   -7.719856|    0.824020|    0.012004|
|         294|   -5.365263|   -7.718282|    0.824020|    0.012003|
|         295|   -5.371971|   -7.717476|    0.824020|    0.012003|
|         296|   -5.378526|   -7.717450|    0.824020|    0.012002|
|         297|   -5.384902|   -7.718202|    0.824020|    0.012002|
|         298|   -5.391074|   -7.719721|    0.824020|    0.012001|
|         299|   -5.397024|   -7.721980|    0.824020|    0.012001|
|         300|   -5.402736|   -7.724947|    0.824021|    0.012001|
|         301|   -5.408200|   -7.728578|    0.824021|    0.011999|
+-----------------------------------------------------------------------+
|Fixed CL Mode                           |Value                         |
+-----------------------------------------------------------------------+
|Current CL                              |0.824021                      |
|Target CL                               |0.824                         |
|Previous AOA                            |2.76522                       |
|Changed AoA by                          |-0.000103588                  |
+-----------------------------------------------------------------------+
+----------------------------------------------------------------+
|  Inner_Iter|    rms[Rho]|     rms[nu]|          CL|          CD|
+----------------------------------------------------------------+
|         302|   -4.177146|   -7.714891|    0.824022|    0.011998|
|         303|   -4.556494|   -7.728040|    0.824022|    0.011998|
|         304|   -4.787879|   -7.735813|    0.824023|    0.011997|
|         305|   -4.859872|   -7.742882|    0.824023|    0.011997|
|         306|   -4.909140|   -7.749914|    0.824024|    0.011996|
|         307|   -4.971870|   -7.757019|    0.824024|    0.011996|
|         308|   -5.046507|   -7.764193|    0.824025|    0.011995|
|         309|   -5.120404|   -7.771412|    0.824026|    0.011995|
|         310|   -5.180446|   -7.778644|    0.824027|    0.011995|
|         311|   -5.222473|   -7.785839|    0.824027|    0.011994|
|         312|   -5.249692|   -7.792955|    0.824028|    0.011994|
|         313|   -5.265817|   -7.799967|    0.824029|    0.011994|
|         314|   -5.273797|   -7.806870|    0.824030|    0.011993|
|         315|   -5.277386|   -7.813655|    0.824031|    0.011993|
|         316|   -5.280686|   -7.820309|    0.824032|    0.011992|
|         317|   -5.286461|   -7.826818|    0.824033|    0.011992|
|         318|   -5.295311|   -7.833178|    0.824033|    0.011992|
|         319|   -5.306092|   -7.839402|    0.824034|    0.011992|
|         320|   -5.317014|   -7.845518|    0.824035|    0.011991|
|         321|   -5.326764|   -7.851556|    0.824036|    0.011991|
|         322|   -5.335048|   -7.857548|    0.824037|    0.011991|
|         323|   -5.342343|   -7.863516|    0.824038|    0.011991|
|         324|   -5.349255|   -7.869481|    0.824039|    0.011990|
|         325|   -5.356060|   -7.875459|    0.824040|    0.011990|
|         326|   -5.362629|   -7.881471|    0.824041|    0.011990|
|         327|   -5.368618|   -7.887539|    0.824042|    0.011990|
|         328|   -5.373692|   -7.893680|    0.824043|    0.011990|
|         329|   -5.377646|   -7.899914|    0.824044|    0.011990|
|         330|   -5.380428|   -7.906252|    0.824046|    0.011990|
|         331|   -5.382127|   -7.912701|    0.824047|    0.011990|
|         332|   -5.382944|   -7.919259|    0.824048|    0.011990|
|         333|   -5.383172|   -7.925916|    0.824049|    0.011990|
|         334|   -5.383139|   -7.932649|    0.824050|    0.011990|
|         335|   -5.383150|   -7.939423|    0.824051|    0.011990|
|         336|   -5.383427|   -7.946195|    0.824052|    0.011990|
|         337|   -5.384079|   -7.952913|    0.824053|    0.011990|
|         338|   -5.385101|   -7.959517|    0.824054|    0.011990|
|         339|   -5.386396|   -7.965946|    0.824055|    0.011990|
|         340|   -5.387806|   -7.972136|    0.824056|    0.011990|
|         341|   -5.389155|   -7.978025|    0.824057|    0.011990|
|         342|   -5.390296|   -7.983554|    0.824058|    0.011990|
|         343|   -5.391147|   -7.988672|    0.824059|    0.011990|
|         344|   -5.391714|   -7.993335|    0.824060|    0.011990|
|         345|   -5.392092|   -7.997508|    0.824060|    0.011990|
|         346|   -5.392437|   -8.001167|    0.824061|    0.011991|
|         347|   -5.392931|   -8.004300|    0.824062|    0.011991|
|         348|   -5.393738|   -8.006905|    0.824063|    0.011991|
|         349|   -5.394980|   -8.008991|    0.824063|    0.011991|
|         350|   -5.396718|   -8.010580|    0.824064|    0.011991|
|         351|   -5.398958|   -8.011703|    0.824064|    0.011992|
|         352|   -5.401663|   -8.012403|    0.824065|    0.011992|
|         353|   -5.404772|   -8.012729|    0.824065|    0.011992|
|         354|   -5.408219|   -8.012738|    0.824065|    0.011992|
|         355|   -5.411950|   -8.012495|    0.824065|    0.011992|
|         356|   -5.415934|   -8.012068|    0.824065|    0.011993|
|         357|   -5.420162|   -8.011527|    0.824065|    0.011993|
|         358|   -5.424644|   -8.010946|    0.824065|    0.011993|
|         359|   -5.429405|   -8.010397|    0.824065|    0.011993|
|         360|   -5.434470|   -8.009950|    0.824065|    0.011993|
|         361|   -5.439865|   -8.009675|    0.824064|    0.011994|
|         362|   -5.445604|   -8.009635|    0.824064|    0.011994|
|         363|   -5.451688|   -8.009890|    0.824063|    0.011994|
|         364|   -5.458109|   -8.010491|    0.824063|    0.011994|
|         365|   -5.464847|   -8.011483|    0.824062|    0.011995|
|         366|   -5.471875|   -8.012902|    0.824061|    0.011995|
|         367|   -5.479158|   -8.014774|    0.824060|    0.011995|
|         368|   -5.486659|   -8.017115|    0.824059|    0.011995|
|         369|   -5.494335|   -8.019931|    0.824058|    0.011995|
|         370|   -5.502142|   -8.023215|    0.824057|    0.011995|
|         371|   -5.510030|   -8.026948|    0.824056|    0.011996|
|         372|   -5.517944|   -8.031093|    0.824055|    0.011996|
|         373|   -5.525826|   -8.035599|    0.824054|    0.011996|
|         374|   -5.533610|   -8.040401|    0.824053|    0.011996|
|         375|   -5.541229|   -8.045415|    0.824052|    0.011996|
|         376|   -5.548612|   -8.050546|    0.824050|    0.011996|
|         377|   -5.555687|   -8.055682|    0.824049|    0.011997|
|         378|   -5.562383|   -8.060701|    0.824048|    0.011997|
|         379|   -5.568636|   -8.065472|    0.824047|    0.011997|
|         380|   -5.574385|   -8.069862|    0.824046|    0.011997|
|         381|   -5.579582|   -8.073740|    0.824044|    0.011997|
|         382|   -5.584186|   -8.076986|    0.824043|    0.011997|
|         383|   -5.588173|   -8.079500|    0.824042|    0.011997|
|         384|   -5.591532|   -8.081205|    0.824041|    0.011997|
|         385|   -5.594265|   -8.082053|    0.824040|    0.011997|
|         386|   -5.596389|   -8.082032|    0.824039|    0.011997|
|         387|   -5.597936|   -8.081163|    0.824038|    0.011997|
|         388|   -5.598945|   -8.079505|    0.824037|    0.011998|
|         389|   -5.599468|   -8.077142|    0.824036|    0.011998|
|         390|   -5.599562|   -8.074183|    0.824035|    0.011998|
|         391|   -5.599288|   -8.070753|    0.824034|    0.011998|
|         392|   -5.598709|   -8.066985|    0.824034|    0.011998|
|         393|   -5.597889|   -8.063016|    0.824033|    0.011998|
|         394|   -5.596886|   -8.058976|    0.824032|    0.011998|
|         395|   -5.595758|   -8.054989|    0.824032|    0.011998|
|         396|   -5.594556|   -8.051165|    0.824031|    0.011998|
|         397|   -5.593325|   -8.047600|    0.824031|    0.011998|
|         398|   -5.592107|   -8.044375|    0.824030|    0.011998|
|         399|   -5.590934|   -8.041553|    0.824030|    0.011998|
|         400|   -5.589836|   -8.039185|    0.824029|    0.011997|
|         401|   -5.588835|   -8.037301|    0.824029|    0.011995|
+-----------------------------------------------------------------------+
|Fixed CL Mode                           |Value                         |
+-----------------------------------------------------------------------+
|Current CL                              |0.824029                      |
|Target CL                               |0.824                         |
|Previous AOA                            |2.76512                       |
|Changed AoA by                          |-0.000145668                  |
+-----------------------------------------------------------------------+
+----------------------------------------------------------------+
|  Inner_Iter|    rms[Rho]|     rms[nu]|          CL|          CD|
+----------------------------------------------------------------+
|         402|   -4.029937|   -7.926598|    0.824028|    0.011995|
|         403|   -4.413736|   -7.974835|    0.824028|    0.011995|
|         404|   -4.655228|   -7.991386|    0.824028|    0.011995|
|         405|   -4.731872|   -8.001127|    0.824028|    0.011995|
|         406|   -4.783930|   -8.008395|    0.824027|    0.011995|
|         407|   -4.851553|   -8.014267|    0.824027|    0.011995|
|         408|   -4.934626|   -8.019171|    0.824027|    0.011995|
|         409|   -5.020355|   -8.023404|    0.824027|    0.011995|
|         410|   -5.093137|   -8.027164|    0.824027|    0.011995|
|         411|   -5.145835|   -8.030513|    0.824027|    0.011994|
|         412|   -5.180578|   -8.033493|    0.824027|    0.011994|
|         413|   -5.201131|   -8.036222|    0.824027|    0.011994|
|         414|   -5.210961|   -8.038859|    0.824027|    0.011994|
|         415|   -5.215181|   -8.041493|    0.824027|    0.011994|
|         416|   -5.219630|   -8.044107|    0.824027|    0.011994|
|         417|   -5.228292|   -8.046611|    0.824027|    0.011994|
|         418|   -5.242144|   -8.048928|    0.824027|    0.011994|
|         419|   -5.259669|   -8.051017|    0.824027|    0.011994|
|         420|   -5.278249|   -8.052877|    0.824027|    0.011993|
|         421|   -5.295787|   -8.054503|    0.824027|    0.011993|
|         422|   -5.311700|   -8.055874|    0.824027|    0.011993|
|         423|   -5.326737|   -8.056951|    0.824027|    0.011993|
|         424|   -5.341983|   -8.057689|    0.824027|    0.011993|
|         425|   -5.357993|   -8.058062|    0.824027|    0.011993|
|         426|   -5.374539|   -8.058075|    0.824027|    0.011993|
|         427|   -5.390850|   -8.057763|    0.824027|    0.011993|
|         428|   -5.406017|   -8.057179|    0.824028|    0.011993|
|         429|   -5.419307|   -8.056395|    0.824028|    0.011992|
|         430|   -5.430320|   -8.055490|    0.824028|    0.011992|
|         431|   -5.439055|   -8.054545|    0.824028|    0.011992|
|         432|   -5.445907|   -8.053634|    0.824028|    0.011992|
|         433|   -5.451601|   -8.052826|    0.824028|    0.011992|
|         434|   -5.457037|   -8.052165|    0.824028|    0.011992|
|         435|   -5.463081|   -8.051684|    0.824028|    0.011992|
|         436|   -5.470393|   -8.051399|    0.824029|    0.011992|
|         437|   -5.479317|   -8.051309|    0.824029|    0.011992|
|         438|   -5.489846|   -8.051406|    0.824029|    0.011992|
|         439|   -5.501637|   -8.051672|    0.824029|    0.011992|
|         440|   -5.514059|   -8.052085|    0.824029|    0.011992|
|         441|   -5.526289|   -8.052621|    0.824029|    0.011992|
|         442|   -5.537468|   -8.053250|    0.824029|    0.011992|
|         443|   -5.546897|   -8.053946|    0.824029|    0.011992|
|         444|   -5.554231|   -8.054679|    0.824029|    0.011992|
|         445|   -5.559562|   -8.055416|    0.824029|    0.011992|
|         446|   -5.563365|   -8.056124|    0.824030|    0.011992|
|         447|   -5.566317|   -8.056766|    0.824030|    0.011992|
|         448|   -5.569091|   -8.057305|    0.824030|    0.011992|
|         449|   -5.572194|   -8.057702|    0.824030|    0.011992|
|         450|   -5.575885|   -8.057916|    0.824030|    0.011992|
|         451|   -5.580171|   -8.057910|    0.824030|    0.011992|
|         452|   -5.584859|   -8.057644|    0.824030|    0.011992|
|         453|   -5.589640|   -8.057092|    0.824029|    0.011992|
|         454|   -5.594178|   -8.056230|    0.824029|    0.011992|
|         455|   -5.598196|   -8.055055|    0.824029|    0.011992|
|         456|   -5.601530|   -8.053563|    0.824029|    0.011992|
|         457|   -5.604145|   -8.051771|    0.824029|    0.011992|
|         458|   -5.606124|   -8.049710|    0.824028|    0.011992|
|         459|   -5.607624|   -8.047423|    0.824028|    0.011992|
|         460|   -5.608830|   -8.044967|    0.824028|    0.011992|
|         461|   -5.609919|   -8.042409|    0.824027|    0.011992|
|         462|   -5.611028|   -8.039822|    0.824027|    0.011992|
|         463|   -5.612255|   -8.037284|    0.824026|    0.011993|
|         464|   -5.613652|   -8.034875|    0.824025|    0.011993|
|         465|   -5.615247|   -8.032678|    0.824025|    0.011993|
|         466|   -5.617050|   -8.030769|    0.824024|    0.011993|
|         467|   -5.619065|   -8.029220|    0.824023|    0.011993|
|         468|   -5.621299|   -8.028097|    0.824023|    0.011993|
|         469|   -5.623767|   -8.027454|    0.824022|    0.011993|
|         470|   -5.626484|   -8.027339|    0.824021|    0.011993|
|         471|   -5.629469|   -8.027784|    0.824020|    0.011993|
|         472|   -5.632742|   -8.028810|    0.824020|    0.011993|
|         473|   -5.636317|   -8.030421|    0.824019|    0.011993|
|         474|   -5.640203|   -8.032609|    0.824018|    0.011993|
|         475|   -5.644404|   -8.035346|    0.824017|    0.011993|
|         476|   -5.648917|   -8.038592|    0.824017|    0.011993|
|         477|   -5.653737|   -8.042286|    0.824016|    0.011993|
|         478|   -5.658852|   -8.046352|    0.824015|    0.011993|
|         479|   -5.664249|   -8.050701|    0.824014|    0.011994|
|         480|   -5.669911|   -8.055227|    0.824014|    0.011994|
|         481|   -5.675820|   -8.059815|    0.824013|    0.011994|
|         482|   -5.681953|   -8.064343|    0.824013|    0.011994|
|         483|   -5.688285|   -8.068685|    0.824012|    0.011994|
|         484|   -5.694789|   -8.072724|    0.824012|    0.011994|
|         485|   -5.701434|   -8.076348|    0.824011|    0.011994|
|         486|   -5.708186|   -8.079466|    0.824011|    0.011994|
|         487|   -5.715008|   -8.082011|    0.824011|    0.011994|
|         488|   -5.721860|   -8.083945|    0.824011|    0.011994|
|         489|   -5.728700|   -8.085259|    0.824010|    0.011994|
|         490|   -5.735484|   -8.085979|    0.824010|    0.011994|
|         491|   -5.742163|   -8.086160|    0.824010|    0.011994|
|         492|   -5.748692|   -8.085883|    0.824010|    0.011994|
|         493|   -5.755021|   -8.085250|    0.824010|    0.011994|
|         494|   -5.761102|   -8.084377|    0.824010|    0.011994|
|         495|   -5.766886|   -8.083387|    0.824010|    0.011994|
|         496|   -5.772327|   -8.082404|    0.824011|    0.011994|
|         497|   -5.777381|   -8.081546|    0.824011|    0.011994|
|         498|   -5.782009|   -8.080925|    0.824011|    0.011994|
|         499|   -5.786173|   -8.080639|    0.824011|    0.011993|
|         500|   -5.789846|   -8.080771|    0.824011|    0.011993|
|         501|   -5.793004|   -8.081389|    0.824012|    0.011992|
+-----------------------------------------------------------------------+
|Fixed CL Mode                           |Value                         |
+-----------------------------------------------------------------------+
|Current CL                              |0.824012                      |
|Target CL                               |0.824                         |
|Previous AOA                            |2.76497                       |
|Changed AoA by                          |-5.65488e-05                  |
+-----------------------------------------------------------------------+
+----------------------------------------------------------------+
|  Inner_Iter|    rms[Rho]|     rms[nu]|          CL|          CD|
+----------------------------------------------------------------+
|         502|   -4.440820|   -8.058230|    0.824012|    0.011992|
|         503|   -4.824338|   -8.072198|    0.824012|    0.011992|
|         504|   -5.064184|   -8.078176|    0.824012|    0.011992|
|         505|   -5.138280|   -8.083064|    0.824013|    0.011992|
|         506|   -5.187393|   -8.087920|    0.824013|    0.011992|
|         507|   -5.250962|   -8.092972|    0.824013|    0.011992|
|         508|   -5.328011|   -8.098267|    0.824014|    0.011992|
|         509|   -5.405436|   -8.103812|    0.824014|    0.011992|
|         510|   -5.468836|   -8.109591|    0.824014|    0.011992|
|         511|   -5.513050|   -8.115557|    0.824015|    0.011991|
|         512|   -5.541283|   -8.121652|    0.824015|    0.011991|
|         513|   -5.557580|   -8.127838|    0.824015|    0.011991|
|         514|   -5.565178|   -8.134076|    0.824016|    0.011991|
|         515|   -5.568196|   -8.140323|    0.824016|    0.011991|
|         516|   -5.571123|   -8.146504|    0.824016|    0.011991|
|         517|   -5.576964|   -8.152532|    0.824016|    0.011991|
|         518|   -5.586358|   -8.158328|    0.824016|    0.011991|
|         519|   -5.598052|   -8.163826|    0.824017|    0.011991|
|         520|   -5.610101|   -8.168971|    0.824017|    0.011990|
|         521|   -5.621105|   -8.173718|    0.824017|    0.011990|
|         522|   -5.630809|   -8.178023|    0.824017|    0.011990|
|         523|   -5.639817|   -8.181847|    0.824017|    0.011990|
|         524|   -5.648850|   -8.185159|    0.824017|    0.011990|
|         525|   -5.658206|   -8.187938|    0.824017|    0.011990|
|         526|   -5.667665|   -8.190184|    0.824017|    0.011990|
|         527|   -5.676716|   -8.191918|    0.824017|    0.011990|
|         528|   -5.684839|   -8.193172|    0.824017|    0.011990|
|         529|   -5.691687|   -8.193995|    0.824017|    0.011990|
|         530|   -5.697152|   -8.194441|    0.824017|    0.011990|
|         531|   -5.701353|   -8.194572|    0.824017|    0.011989|
|         532|   -5.704613|   -8.194448|    0.824016|    0.011989|
|         533|   -5.707395|   -8.194127|    0.824016|    0.011989|
|         534|   -5.710220|   -8.193661|    0.824016|    0.011989|
|         535|   -5.713558|   -8.193095|    0.824016|    0.011989|
|         536|   -5.717749|   -8.192466|    0.824016|    0.011989|
|         537|   -5.722953|   -8.191808|    0.824015|    0.011989|
|         538|   -5.729141|   -8.191145|    0.824015|    0.011989|
|         539|   -5.736121|   -8.190501|    0.824015|    0.011989|
|         540|   -5.743580|   -8.189897|    0.824014|    0.011989|
|         541|   -5.751144|   -8.189353|    0.824014|    0.011989|
|         542|   -5.758453|   -8.188890|    0.824014|    0.011989|
|         543|   -5.765234|   -8.188528|    0.824013|    0.011989|
|         544|   -5.771363|   -8.188286|    0.824013|    0.011989|
|         545|   -5.776882|   -8.188185|    0.824013|    0.011989|
|         546|   -5.781971|   -8.188243|    0.824012|    0.011989|
|         547|   -5.786886|   -8.188475|    0.824012|    0.011990|
|         548|   -5.791878|   -8.188893|    0.824012|    0.011990|
|         549|   -5.797137|   -8.189503|    0.824011|    0.011990|
|         550|   -5.802747|   -8.190306|    0.824011|    0.011990|
|         551|   -5.808683|   -8.191295|    0.824011|    0.011990|
|         552|   -5.814828|   -8.192458|    0.824010|    0.011990|
|         553|   -5.821009|   -8.193773|    0.824010|    0.011990|
|         554|   -5.827034|   -8.195210|    0.824010|    0.011990|
|         555|   -5.832731|   -8.196731|    0.824009|    0.011990|
|         556|   -5.837975|   -8.198292|    0.824009|    0.011991|
|         557|   -5.842696|   -8.199841|    0.824008|    0.011991|
|         558|   -5.846879|   -8.201321|    0.824008|    0.011991|
|         559|   -5.850550|   -8.202673|    0.824008|    0.011991|
|         560|   -5.853752|   -8.203836|    0.824007|    0.011991|
|         561|   -5.856536|   -8.204755|    0.824007|    0.011991|
|         562|   -5.858940|   -8.205379|    0.824007|    0.011992|
|         563|   -5.860993|   -8.205667|    0.824006|    0.011992|
|         564|   -5.862709|   -8.205575|    0.824006|    0.011992|
|         565|   -5.864094|   -8.205090|    0.824005|    0.011992|
|         566|   -5.865156|   -8.204220|    0.824005|    0.011992|
|         567|   -5.865904|   -8.202989|    0.824004|    0.011993|
|         568|   -5.866353|   -8.201435|    0.824004|    0.011993|
|         569|   -5.866529|   -8.199608|    0.824004|    0.011993|
|         570|   -5.866463|   -8.197571|    0.824003|    0.011993|
|         571|   -5.866192|   -8.195391|    0.824003|    0.011993|
|         572|   -5.865753|   -8.193140|    0.824002|    0.011994|
|         573|   -5.865187|   -8.190892|    0.824002|    0.011994|
|         574|   -5.864533|   -8.188719|    0.824001|    0.011994|
|         575|   -5.863828|   -8.186686|    0.824001|    0.011994|
|         576|   -5.863108|   -8.184850|    0.824000|    0.011994|
|         577|   -5.862408|   -8.183262|    0.824000|    0.011994|
|         578|   -5.861760|   -8.181960|    0.824000|    0.011995|
|         579|   -5.861196|   -8.180972|    0.823999|    0.011995|
|         580|   -5.860747|   -8.180314|    0.823999|    0.011995|
|         581|   -5.860440|   -8.179991|    0.823998|    0.011995|
|         582|   -5.860303|   -8.179995|    0.823998|    0.011995|
|         583|   -5.860360|   -8.180307|    0.823998|    0.011995|
|         584|   -5.860634|   -8.180901|    0.823997|    0.011996|
|         585|   -5.861147|   -8.181740|    0.823997|    0.011996|
|         586|   -5.861916|   -8.182779|    0.823997|    0.011996|
|         587|   -5.862957|   -8.183971|    0.823996|    0.011996|
|         588|   -5.864285|   -8.185264|    0.823996|    0.011996|
|         589|   -5.865912|   -8.186606|    0.823996|    0.011996|
|         590|   -5.867847|   -8.187945|    0.823995|    0.011996|
|         591|   -5.870097|   -8.189236|    0.823995|    0.011996|
|         592|   -5.872666|   -8.190434|    0.823995|    0.011996|
|         593|   -5.875558|   -8.191507|    0.823995|    0.011996|
|         594|   -5.878771|   -8.192428|    0.823995|    0.011996|
|         595|   -5.882303|   -8.193181|    0.823995|    0.011996|
|         596|   -5.886147|   -8.193758|    0.823994|    0.011996|
|         597|   -5.890294|   -8.194162|    0.823994|    0.011996|
|         598|   -5.894733|   -8.194402|    0.823994|    0.011996|
|         599|   -5.899448|   -8.194495|    0.823994|    0.011996|
|         600|   -5.904419|   -8.194463|    0.823994|    0.011996|
|         601|   -5.909625|   -8.194330|    0.823994|    0.011997|
+-----------------------------------------------------------------------+
|Fixed CL Mode                           |Value                         |
+-----------------------------------------------------------------------+
|Current CL                              |0.823994                      |
|Target CL                               |0.824                         |
|Previous AOA                            |2.76491                       |
|Changed AoA by                          |2.92473e-05                   |
+-----------------------------------------------------------------------+
+----------------------------------------------------------------+
|  Inner_Iter|    rms[Rho]|     rms[nu]|          CL|          CD|
+----------------------------------------------------------------+
|         602|   -4.726213|   -8.182373|    0.823994|    0.011997|
|         603|   -5.106586|   -8.187955|    0.823994|    0.011997|
|         604|   -5.342383|   -8.189420|    0.823994|    0.011997|
|         605|   -5.417329|   -8.190060|    0.823994|    0.011996|
|         606|   -5.467443|   -8.190407|    0.823994|    0.011996|
|         607|   -5.530176|   -8.190620|    0.823994|    0.011996|
|         608|   -5.603905|   -8.190770|    0.823994|    0.011996|
|         609|   -5.675242|   -8.190901|    0.823994|    0.011996|
|         610|   -5.730772|   -8.191038|    0.823994|    0.011996|
|         611|   -5.767311|   -8.191188|    0.823994|    0.011996|
|         612|   -5.789481|   -8.191356|    0.823994|    0.011996|
|         613|   -5.801939|   -8.191551|    0.823994|    0.011996|
|         614|   -5.807970|   -8.191788|    0.823994|    0.011995|
|         615|   -5.811102|   -8.192076|    0.823994|    0.011995|
|         616|   -5.814912|   -8.192418|    0.823994|    0.011995|
|         617|   -5.821668|   -8.192817|    0.823994|    0.011995|
|         618|   -5.831651|   -8.193273|    0.823994|    0.011995|
|         619|   -5.843522|   -8.193796|    0.823994|    0.011995|
|         620|   -5.855342|   -8.194396|    0.823994|    0.011994|
|         621|   -5.865667|   -8.195095|    0.823994|    0.011994|
|         622|   -5.874122|   -8.195907|    0.823994|    0.011994|
|         623|   -5.881187|   -8.196839|    0.823994|    0.011994|
|         624|   -5.887558|   -8.197900|    0.823994|    0.011994|
|         625|   -5.893655|   -8.199096|    0.823994|    0.011994|
|         626|   -5.899514|   -8.200435|    0.823994|    0.011993|
|         627|   -5.904933|   -8.201924|    0.823994|    0.011993|
|         628|   -5.909666|   -8.203570|    0.823994|    0.011993|
|         629|   -5.913537|   -8.205375|    0.823994|    0.011993|
|         630|   -5.916470|   -8.207336|    0.823994|    0.011993|
|         631|   -5.918493|   -8.209450|    0.823994|    0.011993|
|         632|   -5.919747|   -8.211707|    0.823994|    0.011992|
|         633|   -5.920475|   -8.214096|    0.823994|    0.011992|
|         634|   -5.920985|   -8.216601|    0.823994|    0.011992|
|         635|   -5.921590|   -8.219203|    0.823994|    0.011992|
|         636|   -5.922546|   -8.221883|    0.823994|    0.011992|
|         637|   -5.924012|   -8.224618|    0.823994|    0.011992|
|         638|   -5.926037|   -8.227387|    0.823994|    0.011992|
|         639|   -5.928571|   -8.230170|    0.823994|    0.011991|
|         640|   -5.931488|   -8.232948|    0.823994|    0.011991|
|         641|   -5.934627|   -8.235707|    0.823994|    0.011991|
|         642|   -5.937829|   -8.238434|    0.823994|    0.011991|
|         643|   -5.940983|   -8.241124|    0.823994|    0.011991|
|         644|   -5.944056|   -8.243774|    0.823994|    0.011991|
|         645|   -5.947095|   -8.246388|    0.823994|    0.011991|
|         646|   -5.950219|   -8.248975|    0.823994|    0.011991|
|         647|   -5.953579|   -8.251547|    0.823994|    0.011991|
|         648|   -5.957323|   -8.254121|    0.823994|    0.011991|
|         649|   -5.961564|   -8.256718|    0.823994|    0.011991|
|         650|   -5.966362|   -8.259360|    0.823995|    0.011991|
|         651|   -5.971716|   -8.262073|    0.823995|    0.011991|
|         652|   -5.977580|   -8.264882|    0.823995|    0.011991|
|         653|   -5.983879|   -8.267816|    0.823995|    0.011991|
|         654|   -5.990525|   -8.270900|    0.823996|    0.011991|
|         655|   -5.997441|   -8.274158|    0.823996|    0.011991|
|         656|   -6.004567|   -8.277612|    0.823996|    0.011991|
|         657|   -6.011870|   -8.281282|    0.823997|    0.011991|
|         658|   -6.019340|   -8.285182|    0.823997|    0.011991|
|         659|   -6.026980|   -8.289323|    0.823997|    0.011991|
|         660|   -6.034803|   -8.293712|    0.823998|    0.011991|
|         661|   -6.042816|   -8.298348|    0.823998|    0.011991|
|         662|   -6.051017|   -8.303227|    0.823999|    0.011991|
|         663|   -6.059392|   -8.308338|    0.823999|    0.011992|
|         664|   -6.067911|   -8.313660|    0.824000|    0.011992|
|         665|   -6.076532|   -8.319168|    0.824000|    0.011992|
|         666|   -6.085203|   -8.324837|    0.824000|    0.011992|
|         667|   -6.093866|   -8.330638|    0.824001|    0.011992|
|         668|   -6.102460|   -8.336534|    0.824001|    0.011992|
|         669|   -6.110920|   -8.342488|    0.824002|    0.011992|
|         670|   -6.119184|   -8.348457|    0.824002|    0.011993|
|         671|   -6.127186|   -8.354397|    0.824002|    0.011993|
|         672|   -6.134863|   -8.360265|    0.824003|    0.011993|
|         673|   -6.142151|   -8.366019|    0.824003|    0.011993|
|         674|   -6.148990|   -8.371619|    0.824004|    0.011993|
|         675|   -6.155324|   -8.377033|    0.824004|    0.011993|
|         676|   -6.161101|   -8.382234|    0.824004|    0.011994|
|         677|   -6.166280|   -8.387203|    0.824004|    0.011994|
|         678|   -6.170831|   -8.391930|    0.824005|    0.011994|
|         679|   -6.174735|   -8.396415|    0.824005|    0.011994|
|         680|   -6.177987|   -8.400668|    0.824005|    0.011994|
|         681|   -6.180599|   -8.404707|    0.824005|    0.011995|
|         682|   -6.182594|   -8.408560|    0.824005|    0.011995|
|         683|   -6.184009|   -8.412259|    0.824005|    0.011995|
|         684|   -6.184892|   -8.415837|    0.824005|    0.011995|
|         685|   -6.185303|   -8.419335|    0.824005|    0.011995|
|         686|   -6.185305|   -8.422803|    0.824005|    0.011995|
|         687|   -6.184971|   -8.426289|    0.824005|    0.011996|
|         688|   -6.184372|   -8.429840|    0.824005|    0.011996|
|         689|   -6.183585|   -8.433498|    0.824005|    0.011996|
|         690|   -6.182681|   -8.437302|    0.824005|    0.011996|
|         691|   -6.181734|   -8.441285|    0.824005|    0.011996|
|         692|   -6.180811|   -8.445471|    0.824005|    0.011996|
|         693|   -6.179975|   -8.449880|    0.824005|    0.011996|
|         694|   -6.179286|   -8.454525|    0.824004|    0.011996|
|         695|   -6.178797|   -8.459408|    0.824004|    0.011997|
|         696|   -6.178557|   -8.464528|    0.824004|    0.011997|
|         697|   -6.178608|   -8.469875|    0.824004|    0.011997|
|         698|   -6.178988|   -8.475433|    0.824003|    0.011997|
|         699|   -6.179729|   -8.481179|    0.824003|    0.011997|
|         700|   -6.180860|   -8.487086|    0.824003|    0.011997|
|         701|   -6.182403|   -8.493122|    0.824003|    0.011997|
+-----------------------------------------------------------------------+
|Fixed CL Mode                           |Value                         |
+-----------------------------------------------------------------------+
|Current CL                              |0.824003                      |
|Target CL                               |0.824                         |
|Previous AOA                            |2.76494                       |
|Changed AoA by                          |-1.43637e-05                  |
+-----------------------------------------------------------------------+
+----------------------------------------------------------------+
|  Inner_Iter|    rms[Rho]|     rms[nu]|          CL|          CD|
+----------------------------------------------------------------+
|         702|   -5.035374|   -8.488873|    0.824002|    0.011997|
|         703|   -5.417749|   -8.500299|    0.824002|    0.011997|
|         704|   -5.657523|   -8.507808|    0.824002|    0.011997|
|         705|   -5.732530|   -8.514616|    0.824001|    0.011997|
|         706|   -5.780496|   -8.521195|    0.824001|    0.011997|
|         707|   -5.840156|   -8.527603|    0.824001|    0.011997|
|         708|   -5.909646|   -8.533794|    0.824000|    0.011997|
|         709|   -5.975442|   -8.539716|    0.824000|    0.011997|
|         710|   -6.025021|   -8.545320|    0.824000|    0.011997|
|         711|   -6.056527|   -8.550573|    0.824000|    0.011997|
|         712|   -6.075218|   -8.555460|    0.823999|    0.011997|
|         713|   -6.085839|   -8.559995|    0.823999|    0.011997|
|         714|   -6.091538|   -8.564207|    0.823999|    0.011997|
|         715|   -6.095462|   -8.568127|    0.823998|    0.011997|
|         716|   -6.100706|   -8.571778|    0.823998|    0.011997|
|         717|   -6.109206|   -8.575174|    0.823998|    0.011997|
|         718|   -6.121135|   -8.578327|    0.823997|    0.011997|
|         719|   -6.135205|   -8.581255|    0.823997|    0.011997|
|         720|   -6.149560|   -8.583974|    0.823997|    0.011997|
|         721|   -6.162788|   -8.586498|    0.823997|    0.011996|
|         722|   -6.174485|   -8.588839|    0.823996|    0.011996|
|         723|   -6.185101|   -8.591003|    0.823996|    0.011996|
|         724|   -6.195356|   -8.592997|    0.823996|    0.011996|
|         725|   -6.205732|   -8.594842|    0.823996|    0.011996|
|         726|   -6.216320|   -8.596548|    0.823996|    0.011996|
|         727|   -6.226921|   -8.598119|    0.823996|    0.011996|
|         728|   -6.237219|   -8.599563|    0.823995|    0.011996|
|         729|   -6.246897|   -8.600889|    0.823995|    0.011996|
|         730|   -6.255696|   -8.602110|    0.823995|    0.011995|
|         731|   -6.263454|   -8.603242|    0.823995|    0.011995|
|         732|   -6.270152|   -8.604306|    0.823995|    0.011995|
|         733|   -6.275934|   -8.605328|    0.823995|    0.011995|
|         734|   -6.281086|   -8.606334|    0.823995|    0.011995|
|         735|   -6.285959|   -8.607354|    0.823995|    0.011995|
|         736|   -6.290874|   -8.608419|    0.823995|    0.011995|
|         737|   -6.296051|   -8.609560|    0.823995|    0.011994|
|         738|   -6.301565|   -8.610804|    0.823994|    0.011994|
|         739|   -6.307344|   -8.612182|    0.823994|    0.011994|
|         740|   -6.313196|   -8.613718|    0.823994|    0.011994|
|         741|   -6.318852|   -8.615437|    0.823994|    0.011994|
|         742|   -6.324040|   -8.617360|    0.823994|    0.011994|
|         743|   -6.328549|   -8.619507|    0.823994|    0.011994|
|         744|   -6.332293|   -8.621892|    0.823994|    0.011993|
|         745|   -6.335329|   -8.624530|    0.823995|    0.011993|
|         746|   -6.337833|   -8.627429|    0.823995|    0.011993|
|         747|   -6.340049|   -8.630597|    0.823995|    0.011993|
|         748|   -6.342220|   -8.634047|    0.823995|    0.011993|
|         749|   -6.344540|   -8.637778|    0.823995|    0.011993|
|         750|   -6.347119|   -8.641787|    0.823995|    0.011993|
|         751|   -6.349979|   -8.646068|    0.823995|    0.011993|
|         752|   -6.353072|   -8.650613|    0.823995|    0.011992|
|         753|   -6.356307|   -8.655413|    0.823995|    0.011992|
|         754|   -6.359580|   -8.660459|    0.823995|    0.011992|
|         755|   -6.362801|   -8.665739|    0.823995|    0.011992|
|         756|   -6.365909|   -8.671245|    0.823995|    0.011992|
|         757|   -6.368882|   -8.676966|    0.823995|    0.011992|
|         758|   -6.371728|   -8.682891|    0.823995|    0.011992|
|         759|   -6.374477|   -8.689016|    0.823995|    0.011992|
|         760|   -6.377165|   -8.695331|    0.823995|    0.011992|
|         761|   -6.379827|   -8.701829|    0.823995|    0.011992|
|         762|   -6.382483|   -8.708504|    0.823995|    0.011992|
|         763|   -6.385140|   -8.715350|    0.823995|    0.011992|
|         764|   -6.387791|   -8.722360|    0.823995|    0.011992|
|         765|   -6.390418|   -8.729528|    0.823995|    0.011992|
|         766|   -6.392994|   -8.736847|    0.823995|    0.011992|
|         767|   -6.395494|   -8.744309|    0.823995|    0.011992|
|         768|   -6.397889|   -8.751902|    0.823995|    0.011992|
|         769|   -6.400154|   -8.759611|    0.823995|    0.011992|
|         770|   -6.402266|   -8.767417|    0.823995|    0.011992|
|         771|   -6.404204|   -8.775300|    0.823995|    0.011992|
|         772|   -6.405947|   -8.783231|    0.823995|    0.011992|
|         773|   -6.407479|   -8.791182|    0.823995|    0.011992|
|         774|   -6.408783|   -8.799116|    0.823995|    0.011992|
|         775|   -6.409843|   -8.806995|    0.823995|    0.011992|
|         776|   -6.410648|   -8.814778|    0.823995|    0.011992|
|         777|   -6.411189|   -8.822424|    0.823995|    0.011992|
|         778|   -6.411461|   -8.829891|    0.823995|    0.011992|
|         779|   -6.411464|   -8.837141|    0.823995|    0.011992|
|         780|   -6.411202|   -8.844137|    0.823996|    0.011992|
|         781|   -6.410683|   -8.850852|    0.823996|    0.011992|
|         782|   -6.409921|   -8.857262|    0.823996|    0.011992|
|         783|   -6.408931|   -8.863355|    0.823996|    0.011993|
|         784|   -6.407735|   -8.869124|    0.823996|    0.011993|
|         785|   -6.406355|   -8.874572|    0.823996|    0.011993|
|         786|   -6.404819|   -8.879707|    0.823996|    0.011993|
|         787|   -6.403154|   -8.884545|    0.823996|    0.011993|
|         788|   -6.401391|   -8.889104|    0.823996|    0.011993|
|         789|   -6.399560|   -8.893406|    0.823996|    0.011993|
|         790|   -6.397693|   -8.897471|    0.823996|    0.011993|
|         791|   -6.395821|   -8.901319|    0.823996|    0.011994|
|         792|   -6.393976|   -8.904964|    0.823996|    0.011994|
|         793|   -6.392188|   -8.908418|    0.823997|    0.011994|
|         794|   -6.390484|   -8.911687|    0.823997|    0.011994|
|         795|   -6.388891|   -8.914771|    0.823997|    0.011994|
|         796|   -6.387433|   -8.917663|    0.823997|    0.011994|
|         797|   -6.386130|   -8.920355|    0.823997|    0.011994|
|         798|   -6.384999|   -8.922833|    0.823997|    0.011994|
|         799|   -6.384056|   -8.925084|    0.823997|    0.011995|
|         800|   -6.383311|   -8.927094|    0.823997|    0.011995|
|         801|   -6.382770|   -8.928852|    0.823997|    0.011995|
+-----------------------------------------------------------------------+
|Fixed CL Mode                           |Value                         |
+-----------------------------------------------------------------------+
|Current CL                              |0.823997                      |
|Target CL                               |0.824                         |
|Previous AOA                            |2.76493                       |
|Changed AoA by                          |1.48234e-05                   |
+-----------------------------------------------------------------------+
+----------------------------------------------------------------+
|  Inner_Iter|    rms[Rho]|     rms[nu]|          CL|          CD|
+----------------------------------------------------------------+
|         802|   -5.021943|   -8.853398|    0.823997|    0.011995|
|         803|   -5.403652|   -8.889746|    0.823997|    0.011995|
|         804|   -5.640442|   -8.902365|    0.823997|    0.011995|
|         805|   -5.714888|   -8.909593|    0.823997|    0.011995|
|         806|   -5.765508|   -8.914571|    0.823997|    0.011996|
|         807|   -5.830545|   -8.918170|    0.823997|    0.011996|
|         808|   -5.909063|   -8.920812|    0.823997|    0.011996|
|         809|   -5.988123|   -8.922813|    0.823997|    0.011996|
|         810|   -6.053257|   -8.924385|    0.823997|    0.011996|
|         811|   -6.099040|   -8.925630|    0.823997|    0.011996|
|         812|   -6.128501|   -8.926614|    0.823997|    0.011996|
|         813|   -6.145666|   -8.927441|    0.823997|    0.011996|
|         814|   -6.153863|   -8.928236|    0.823997|    0.011996|
|         815|   -6.157397|   -8.929088|    0.823997|    0.011996|
|         816|   -6.160967|   -8.930024|    0.823997|    0.011996|
|         817|   -6.167712|   -8.931047|    0.823997|    0.011996|
|         818|   -6.178286|   -8.932161|    0.823997|    0.011996|
|         819|   -6.191321|   -8.933403|    0.823997|    0.011996|
|         820|   -6.204652|   -8.934810|    0.823997|    0.011997|
|         821|   -6.216630|   -8.936432|    0.823996|    0.011997|
|         822|   -6.226834|   -8.938288|    0.823996|    0.011997|
|         823|   -6.235813|   -8.940372|    0.823996|    0.011997|
|         824|   -6.244324|   -8.942655|    0.823996|    0.011997|
|         825|   -6.252730|   -8.945095|    0.823996|    0.011997|
|         826|   -6.260885|   -8.947648|    0.823996|    0.011997|
|         827|   -6.268357|   -8.950271|    0.823996|    0.011997|
|         828|   -6.274702|   -8.952920|    0.823996|    0.011997|
|         829|   -6.279631|   -8.955545|    0.823995|    0.011997|
|         830|   -6.283054|   -8.958086|    0.823995|    0.011996|
|         831|   -6.285067|   -8.960521|    0.823995|    0.011996|
|         832|   -6.285930|   -8.962767|    0.823995|    0.011996|
|         833|   -6.286029|   -8.964762|    0.823995|    0.011996|
|         834|   -6.285808|   -8.966440|    0.823995|    0.011996|
|         835|   -6.285676|   -8.967739|    0.823995|    0.011996|
|         836|   -6.285932|   -8.968596|    0.823995|    0.011996|
|         837|   -6.286728|   -8.968949|    0.823994|    0.011996|
|         838|   -6.288057|   -8.968743|    0.823994|    0.011996|
|         839|   -6.289787|   -8.967936|    0.823994|    0.011996|
|         840|   -6.291699|   -8.966497|    0.823994|    0.011996|
|         841|   -6.293543|   -8.964409|    0.823994|    0.011996|
|         842|   -6.295103|   -8.961682|    0.823994|    0.011996|
|         843|   -6.296245|   -8.958332|    0.823994|    0.011996|
|         844|   -6.296953|   -8.954397|    0.823994|    0.011996|
|         845|   -6.297332|   -8.949928|    0.823994|    0.011995|
|         846|   -6.297572|   -8.944988|    0.823994|    0.011995|
|         847|   -6.297900|   -8.939654|    0.823994|    0.011995|
|         848|   -6.298522|   -8.934005|    0.823993|    0.011995|
|         849|   -6.299587|   -8.928128|    0.823993|    0.011995|
|         850|   -6.301167|   -8.922094|    0.823993|    0.011995|
|         851|   -6.303259|   -8.916011|    0.823993|    0.011995|
|         852|   -6.305801|   -8.909964|    0.823993|    0.011995|
|         853|   -6.308700|   -8.904039|    0.823993|    0.011995|
|         854|   -6.311855|   -8.898323|    0.823993|    0.011995|
|         855|   -6.315180|   -8.892894|    0.823994|    0.011995|
|         856|   -6.318617|   -8.887828|    0.823994|    0.011994|
|         857|   -6.322137|   -8.883195|    0.823994|    0.011994|
|         858|   -6.325736|   -8.879064|    0.823994|    0.011994|
|         859|   -6.329429|   -8.875494|    0.823994|    0.011994|
|         860|   -6.333232|   -8.872541|    0.823994|    0.011994|
|         861|   -6.337157|   -8.870254|    0.823994|    0.011994|
|         862|   -6.341206|   -8.868676|    0.823994|    0.011994|
|         863|   -6.345364|   -8.867841|    0.823994|    0.011994|
|         864|   -6.349603|   -8.867777|    0.823995|    0.011994|
|         865|   -6.353883|   -8.868504|    0.823995|    0.011994|
|         866|   -6.358160|   -8.870031|    0.823995|    0.011994|
|         867|   -6.362383|   -8.872358|    0.823995|    0.011994|
|         868|   -6.366502|   -8.875482|    0.823995|    0.011994|
|         869|   -6.370470|   -8.879378|    0.823995|    0.011994|
|         870|   -6.374239|   -8.884008|    0.823996|    0.011994|
|         871|   -6.377767|   -8.889313|    0.823996|    0.011993|
|         872|   -6.381011|   -8.895223|    0.823996|    0.011993|
|         873|   -6.383936|   -8.901647|    0.823996|    0.011993|
|         874|   -6.386505|   -8.908478|    0.823996|    0.011993|
|         875|   -6.388689|   -8.915594|    0.823997|    0.011993|
|         876|   -6.390465|   -8.922852|    0.823997|    0.011993|
|         877|   -6.391814|   -8.930101|    0.823997|    0.011993|
|         878|   -6.392727|   -8.937177|    0.823997|    0.011993|
|         879|   -6.393203|   -8.943918|    0.823997|    0.011993|
|         880|   -6.393249|   -8.950163|    0.823998|    0.011993|
|         881|   -6.392881|   -8.955769|    0.823998|    0.011993|
|         882|   -6.392123|   -8.960614|    0.823998|    0.011993|
|         883|   -6.391005|   -8.964611|    0.823998|    0.011993|
|         884|   -6.389565|   -8.967709|    0.823998|    0.011993|
|         885|   -6.387843|   -8.969900|    0.823998|    0.011993|
|         886|   -6.385885|   -8.971219|    0.823999|    0.011993|
|         887|   -6.383737|   -8.971737|    0.823999|    0.011993|
|         888|   -6.381449|   -8.971559|    0.823999|    0.011993|
|         889|   -6.379068|   -8.970811|    0.823999|    0.011993|
|         890|   -6.376641|   -8.969633|    0.823999|    0.011993|
|         891|   -6.374213|   -8.968170|    0.823999|    0.011993|
|         892|   -6.371828|   -8.966563|    0.823999|    0.011993|
|         893|   -6.369525|   -8.964940|    0.823999|    0.011993|
|         894|   -6.367341|   -8.963419|    0.823999|    0.011993|
|         895|   -6.365309|   -8.962095|    0.823999|    0.011993|
|         896|   -6.363457|   -8.961047|    0.823999|    0.011994|
|         897|   -6.361812|   -8.960333|    0.823999|    0.011994|
|         898|   -6.360396|   -8.959992|    0.823999|    0.011994|
|         899|   -6.359228|   -8.960046|    0.823999|    0.011994|
|         900|   -6.358324|   -8.960498|    0.823999|    0.011994|
|         901|   -6.357697|   -8.961340|    0.823999|    0.011994|
+-----------------------------------------------------------------------+
|Fixed CL Mode                           |Value                         |
+-----------------------------------------------------------------------+
|Current CL                              |0.823999                      |
|Target CL                               |0.824                         |
|Previous AOA                            |2.76494                       |
[...]
|        5298|   -6.048175|   -7.950360|    0.824239|    0.011999|
|        5299|   -6.054894|   -7.954189|    0.824239|    0.011999|
|        5300|   -6.061174|   -7.958084|    0.824239|    0.011999|
|        5301|   -6.066982|   -7.962056|    0.824240|    0.011999|
|        5302|   -6.072298|   -7.966114|    0.824240|    0.011999|
|        5303|   -6.077114|   -7.970265|    0.824240|    0.011999|
|        5304|   -6.081437|   -7.974511|    0.824240|    0.011998|
|        5305|   -6.085284|   -7.978852|    0.824240|    0.011998|
|        5306|   -6.088686|   -7.983288|    0.824240|    0.011998|
|        5307|   -6.091682|   -7.987816|    0.824240|    0.011998|
|        5308|   -6.094321|   -7.992433|    0.824240|    0.011998|
|        5309|   -6.096657|   -7.997135|    0.824240|    0.011998|
|        5310|   -6.098750|   -8.001918|    0.824240|    0.011998|
|        5311|   -6.100659|   -8.006777|    0.824241|    0.011998|
|        5312|   -6.102446|   -8.011708|    0.824241|    0.011998|
|        5313|   -6.104170|   -8.016708|    0.824241|    0.011998|
|        5314|   -6.105889|   -8.021778|    0.824241|    0.011998|
|        5315|   -6.107654|   -8.026917|    0.824241|    0.011998|
|        5316|   -6.109514|   -8.032128|    0.824241|    0.011998|
|        5317|   -6.111510|   -8.037414|    0.824241|    0.011998|
|        5318|   -6.113679|   -8.042777|    0.824242|    0.011998|
|        5319|   -6.116050|   -8.048220|    0.824242|    0.011998|
|        5320|   -6.118647|   -8.053747|    0.824242|    0.011998|
|        5321|   -6.121484|   -8.059359|    0.824242|    0.011999|
|        5322|   -6.124571|   -8.065058|    0.824242|    0.011999|
|        5323|   -6.127912|   -8.070846|    0.824242|    0.011999|
|        5324|   -6.131500|   -8.076722|    0.824243|    0.011999|
|        5325|   -6.135326|   -8.082685|    0.824243|    0.011999|
|        5326|   -6.139371|   -8.088730|    0.824243|    0.011999|
|        5327|   -6.143614|   -8.094855|    0.824243|    0.011999|
|        5328|   -6.148025|   -8.101052|    0.824243|    0.011999|
|        5329|   -6.152571|   -8.107315|    0.824243|    0.011999|
|        5330|   -6.157213|   -8.113636|    0.824244|    0.011999|
|        5331|   -6.161909|   -8.120004|    0.824244|    0.011999|
|        5332|   -6.166616|   -8.126411|    0.824244|    0.011999|
|        5333|   -6.171287|   -8.132846|    0.824244|    0.011999|
|        5334|   -6.175877|   -8.139301|    0.824244|    0.012000|
|        5335|   -6.180340|   -8.145766|    0.824245|    0.012000|
|        5336|   -6.184636|   -8.152233|    0.824245|    0.012000|
|        5337|   -6.188726|   -8.158694|    0.824245|    0.012000|
|        5338|   -6.192578|   -8.165146|    0.824245|    0.012000|
|        5339|   -6.196168|   -8.171584|    0.824245|    0.012000|
|        5340|   -6.199477|   -8.178007|    0.824245|    0.012000|
|        5341|   -6.202496|   -8.184414|    0.824246|    0.012000|
|        5342|   -6.205227|   -8.190808|    0.824246|    0.012000|
|        5343|   -6.207676|   -8.197191|    0.824246|    0.012000|
|        5344|   -6.209863|   -8.203571|    0.824246|    0.012000|
|        5345|   -6.211811|   -8.209954|    0.824246|    0.012000|
|        5346|   -6.213553|   -8.216348|    0.824246|    0.012000|
|        5347|   -6.215125|   -8.222762|    0.824246|    0.012001|
|        5348|   -6.216571|   -8.229208|    0.824247|    0.012001|
|        5349|   -6.217933|   -8.235694|    0.824247|    0.012001|
|        5350|   -6.219257|   -8.242233|    0.824247|    0.012001|
|        5351|   -6.220592|   -8.248837|    0.824247|    0.012001|
|        5352|   -6.221981|   -8.255515|    0.824247|    0.012001|
|        5353|   -6.223468|   -8.262280|    0.824247|    0.012001|
|        5354|   -6.225095|   -8.269142|    0.824247|    0.012001|
|        5355|   -6.226898|   -8.276107|    0.824247|    0.012001|
|        5356|   -6.228912|   -8.283184|    0.824248|    0.012001|
|        5357|   -6.231164|   -8.290375|    0.824248|    0.012001|
|        5358|   -6.233681|   -8.297681|    0.824248|    0.012001|
|        5359|   -6.236482|   -8.305103|    0.824248|    0.012001|
|        5360|   -6.239583|   -8.312640|    0.824248|    0.012001|
|        5361|   -6.242994|   -8.320291|    0.824248|    0.012001|
|        5362|   -6.246721|   -8.328053|    0.824248|    0.012001|
|        5363|   -6.250764|   -8.335923|    0.824248|    0.012001|
|        5364|   -6.255118|   -8.343895|    0.824248|    0.012001|
|        5365|   -6.259774|   -8.351962|    0.824248|    0.012001|
|        5366|   -6.264716|   -8.360115|    0.824248|    0.012001|
|        5367|   -6.269926|   -8.368345|    0.824248|    0.012001|
|        5368|   -6.275377|   -8.376641|    0.824248|    0.012001|
|        5369|   -6.281041|   -8.384991|    0.824248|    0.012001|
|        5370|   -6.286884|   -8.393381|    0.824248|    0.012001|
|        5371|   -6.292868|   -8.401797|    0.824248|    0.012001|
|        5372|   -6.298951|   -8.410227|    0.824248|    0.012001|
|        5373|   -6.305089|   -8.418658|    0.824248|    0.012001|
|        5374|   -6.311232|   -8.427075|    0.824248|    0.012001|
|        5375|   -6.317333|   -8.435468|    0.824248|    0.012001|
|        5376|   -6.323340|   -8.443826|    0.824248|    0.012001|
|        5377|   -6.329205|   -8.452139|    0.824248|    0.012001|
|        5378|   -6.334877|   -8.460398|    0.824249|    0.012001|
|        5379|   -6.340313|   -8.468596|    0.824249|    0.012001|
|        5380|   -6.345471|   -8.476728|    0.824249|    0.012001|
|        5381|   -6.350313|   -8.484787|    0.824249|    0.012001|
|        5382|   -6.354809|   -8.492770|    0.824249|    0.012000|
|        5383|   -6.358937|   -8.500675|    0.824249|    0.012000|
|        5384|   -6.362679|   -8.508500|    0.824249|    0.012000|
|        5385|   -6.366028|   -8.516241|    0.824249|    0.012000|
|        5386|   -6.368982|   -8.523898|    0.824249|    0.012000|
|        5387|   -6.371547|   -8.531467|    0.824249|    0.012000|
|        5388|   -6.373736|   -8.538946|    0.824249|    0.012000|
|        5389|   -6.375566|   -8.546328|    0.824249|    0.012000|
|        5390|   -6.377059|   -8.553606|    0.824249|    0.012000|
|        5391|   -6.378242|   -8.560771|    0.824249|    0.012000|
|        5392|   -6.379140|   -8.567809|    0.824250|    0.012000|
|        5393|   -6.379783|   -8.574704|    0.824250|    0.011999|
|        5394|   -6.380199|   -8.581435|    0.824250|    0.011999|
|        5395|   -6.380414|   -8.587979|    0.824250|    0.011999|
|        5396|   -6.380457|   -8.594311|    0.824250|    0.011999|
|        5397|   -6.380352|   -8.600402|    0.824250|    0.011999|
|        5398|   -6.380116|   -8.606223|    0.824251|    0.011999|
|        5399|   -6.379769|   -8.611743|    0.824251|    0.011999|
|        5400|   -6.379326|   -8.616933|    0.824251|    0.011999|
|        5401|   -6.378799|   -8.621764|    0.824251|    0.011999|
|        5402|   -6.378200|   -8.626210|    0.824251|    0.011999|
|        5403|   -6.377536|   -8.630248|    0.824251|    0.011999|
|        5404|   -6.376814|   -8.633861|    0.824252|    0.011998|
|        5405|   -6.376040|   -8.637039|    0.824252|    0.011998|
|        5406|   -6.375218|   -8.639782|    0.824252|    0.011998|
|        5407|   -6.374352|   -8.642095|    0.824252|    0.011998|
|        5408|   -6.373443|   -8.643995|    0.824252|    0.011998|
|        5409|   -6.372496|   -8.645502|    0.824253|    0.011998|
|        5410|   -6.371511|   -8.646647|    0.824253|    0.011998|
|        5411|   -6.370491|   -8.647463|    0.824253|    0.011998|
|        5412|   -6.369438|   -8.647988|    0.824253|    0.011998|
|        5413|   -6.368356|   -8.648261|    0.824253|    0.011998|
|        5414|   -6.367248|   -8.648323|    0.824254|    0.011998|
|        5415|   -6.366118|   -8.648216|    0.824254|    0.011997|
|        5416|   -6.364971|   -8.647981|    0.824254|    0.011997|
|        5417|   -6.363811|   -8.647655|    0.824254|    0.011997|
|        5418|   -6.362645|   -8.647272|    0.824254|    0.011997|
|        5419|   -6.361478|   -8.646864|    0.824255|    0.011997|
|        5420|   -6.360319|   -8.646456|    0.824255|    0.011997|
|        5421|   -6.359175|   -8.646070|    0.824255|    0.011997|
|        5422|   -6.358055|   -8.645722|    0.824255|    0.011997|
|        5423|   -6.356969|   -8.645425|    0.824255|    0.011997|
|        5424|   -6.355927|   -8.645188|    0.824255|    0.011997|
|        5425|   -6.354939|   -8.645014|    0.824256|    0.011997|
|        5426|   -6.354018|   -8.644906|    0.824256|    0.011997|
|        5427|   -6.353176|   -8.644862|    0.824256|    0.011997|
|        5428|   -6.352427|   -8.644878|    0.824256|    0.011997|
|        5429|   -6.351784|   -8.644951|    0.824256|    0.011997|
|        5430|   -6.351262|   -8.645074|    0.824256|    0.011997|
|        5431|   -6.350876|   -8.645242|    0.824256|    0.011997|
|        5432|   -6.350641|   -8.645449|    0.824257|    0.011997|
|        5433|   -6.350573|   -8.645691|    0.824257|    0.011997|
|        5434|   -6.350687|   -8.645965|    0.824257|    0.011997|
|        5435|   -6.350998|   -8.646267|    0.824257|    0.011997|
|        5436|   -6.351521|   -8.646599|    0.824257|    0.011997|
|        5437|   -6.352270|   -8.646959|    0.824257|    0.011997|
|        5438|   -6.353258|   -8.647349|    0.824257|    0.011997|
|        5439|   -6.354498|   -8.647775|    0.824257|    0.011997|
|        5440|   -6.355999|   -8.648240|    0.824258|    0.011997|
|        5441|   -6.357771|   -8.648749|    0.824258|    0.011997|
|        5442|   -6.359822|   -8.649311|    0.824258|    0.011997|
|        5443|   -6.362156|   -8.649930|    0.824258|    0.011997|
|        5444|   -6.364777|   -8.650613|    0.824258|    0.011997|
|        5445|   -6.367684|   -8.651366|    0.824258|    0.011997|
|        5446|   -6.370876|   -8.652196|    0.824258|    0.011997|
|        5447|   -6.374348|   -8.653108|    0.824258|    0.011997|
|        5448|   -6.378092|   -8.654105|    0.824258|    0.011998|
|        5449|   -6.382095|   -8.655192|    0.824258|    0.011998|
|        5450|   -6.386343|   -8.656371|    0.824258|    0.011998|
|        5451|   -6.390819|   -8.657644|    0.824258|    0.011998|
|        5452|   -6.395500|   -8.659010|    0.824258|    0.011998|
|        5453|   -6.400361|   -8.660471|    0.824258|    0.011998|
|        5454|   -6.405372|   -8.662023|    0.824259|    0.011998|
|        5455|   -6.410503|   -8.663666|    0.824259|    0.011998|
|        5456|   -6.415718|   -8.665395|    0.824259|    0.011998|
|        5457|   -6.420977|   -8.667207|    0.824259|    0.011998|
|        5458|   -6.426241|   -8.669097|    0.824259|    0.011998|
|        5459|   -6.431466|   -8.671062|    0.824259|    0.011998|
|        5460|   -6.436609|   -8.673095|    0.824259|    0.011998|
|        5461|   -6.441623|   -8.675192|    0.824259|    0.011999|
|        5462|   -6.446465|   -8.677348|    0.824259|    0.011999|
|        5463|   -6.451090|   -8.679557|    0.824259|    0.011999|
|        5464|   -6.455458|   -8.681816|    0.824259|    0.011999|
|        5465|   -6.459530|   -8.684118|    0.824259|    0.011999|
|        5466|   -6.463271|   -8.686461|    0.824259|    0.011999|
|        5467|   -6.466652|   -8.688840|    0.824259|    0.011999|
|        5468|   -6.469651|   -8.691250|    0.824259|    0.011999|
|        5469|   -6.472249|   -8.693687|    0.824258|    0.011999|
|        5470|   -6.474439|   -8.696149|    0.824258|    0.011999|
|        5471|   -6.476215|   -8.698630|    0.824258|    0.011999|
|        5472|   -6.477585|   -8.701126|    0.824258|    0.011999|
|        5473|   -6.478557|   -8.703634|    0.824258|    0.012000|
|        5474|   -6.479150|   -8.706148|    0.824258|    0.012000|
|        5475|   -6.479388|   -8.708663|    0.824258|    0.012000|
|        5476|   -6.479297|   -8.711174|    0.824258|    0.012000|
|        5477|   -6.478911|   -8.713674|    0.824258|    0.012000|
|        5478|   -6.478263|   -8.716156|    0.824258|    0.012000|
|        5479|   -6.477391|   -8.718614|    0.824258|    0.012000|
|        5480|   -6.476332|   -8.721039|    0.824258|    0.012000|
|        5481|   -6.475125|   -8.723423|    0.824258|    0.012000|
|        5482|   -6.473808|   -8.725758|    0.824258|    0.012000|
|        5483|   -6.472416|   -8.728035|    0.824258|    0.012000|
|        5484|   -6.470986|   -8.730244|    0.824258|    0.012000|
|        5485|   -6.469549|   -8.732378|    0.824257|    0.012000|
|        5486|   -6.468138|   -8.734428|    0.824257|    0.012000|
|        5487|   -6.466780|   -8.736385|    0.824257|    0.012000|
|        5488|   -6.465501|   -8.738242|    0.824257|    0.012000|
|        5489|   -6.464323|   -8.739992|    0.824257|    0.012000|
|        5490|   -6.463269|   -8.741630|    0.824257|    0.012000|
|        5491|   -6.462354|   -8.743151|    0.824257|    0.012000|
|        5492|   -6.461595|   -8.744551|    0.824257|    0.012000|
|        5493|   -6.461004|   -8.745827|    0.824257|    0.012000|
|        5494|   -6.460593|   -8.746979|    0.824257|    0.012000|
|        5495|   -6.460370|   -8.748006|    0.824257|    0.012000|
|        5496|   -6.460341|   -8.748909|    0.824257|    0.012000|
|        5497|   -6.460512|   -8.749690|    0.824257|    0.012000|
|        5498|   -6.460886|   -8.750352|    0.824257|    0.012000|
|        5499|   -6.461466|   -8.750898|    0.824257|    0.011986|
+-----------------------------------------------------------------------+
|Fixed CL Mode (Finite Difference)       |Value                         |
+-----------------------------------------------------------------------+
|Delta CL / Delta AoA                    |0.256874                      |
|Delta CD / Delta CL                     |0.0210779                     |
|Delta CMz / Delta CL                    |0.0196909                     |
+-----------------------------------------------------------------------+
Writing Flow Meta-Data file: flow.meta

----------------------------- Solver Exit -------------------------------

Maximum number of iterations reached (ITER = 5500) before convergence.
+-----------------------------------------------------------------------+
|      Convergence Field     |     Value    |   Criterion  |  Converged |
+-----------------------------------------------------------------------+
|                    rms[Rho]|      -6.46147|         < -12|          No|
+-----------------------------------------------------------------------+
-------------------------------------------------------------------------

--------------------------- Finalizing Solver ---------------------------
Deleted CNumerics container.
Deleted CIntegration container.
Deleted CSolver container.
Deleted CIteration container.
Deleted CInterface container.
Deleted CGeometry container.
Deleted CFreeFormDefBox class.
Deleted CSurfaceMovement class.
Deleted CVolumetricMovement class.
Deleted CConfig container.
Deleted nInst container.
Deleted COutput class.
-------------------------------------------------------------------------

------------------------- Exit Success (SU2_CFD) ------------------------


-------------------------------------------------------------------------
|    ___ _   _ ___                                                      |
|   / __| | | |_  )   Release 8.0.0 "Harrier"                           |
|   \__ \ |_| |/ /                                                      |
|   |___/\___//___|   Suite (Solution Exporting Code)                   |
|                                                                       |
-------------------------------------------------------------------------
| SU2 Project Website: https://su2code.github.io                        |
|                                                                       |
| The SU2 Project is maintained by the SU2 Foundation                   |
| (http://su2foundation.org)                                            |
-------------------------------------------------------------------------
| Copyright 2012-2023, SU2 Contributors                                 |
|                                                                       |
| SU2 is free software; you can redistribute it and/or                  |
| modify it under the terms of the GNU Lesser General Public            |
| License as published by the Free Software Foundation; either          |
| version 2.1 of the License, or (at your option) any later version.    |
|                                                                       |
| SU2 is distributed in the hope that it will be useful,                |
| but WITHOUT ANY WARRANTY; without even the implied warranty of        |
| MERCHANTABILITY or FITNESS FOR A PARTICULAR PURPOSE. See the GNU      |
| Lesser General Public License for more details.                       |
|                                                                       |
| You should have received a copy of the GNU Lesser General Public      |
| License along with SU2. If not, see <http://www.gnu.org/licenses/>.   |
-------------------------------------------------------------------------

----------------- Physical Case Definition ( Zone 0 ) -------------------
Input mesh file name: mesh_RAE2822_turb_deform.su2

-------------------- Output Information ( Zone 0 ) ----------------------
The tabular file format is CSV (.csv).
Flow variables file name: flow.

------------- Config File Boundary Information ( Zone 0 ) ---------------
+-----------------------------------------------------------------------+
|                        Marker Type|                        Marker Name|
+-----------------------------------------------------------------------+
|                          Far-field|                           FARFIELD|
+-----------------------------------------------------------------------+
|                     Heat flux wall|                            AIRFOIL|
+-----------------------------------------------------------------------+
Two dimensional problem.
13937 grid points before partitioning.
22842 volume elements before partitioning.
2 surface markers.
192 boundary elements in index 0 (Marker = AIRFOIL).
40 boundary elements in index 1 (Marker = FARFIELD).
Executing the partitioning functions.
Building the graph adjacency structure.
Calling ParMETIS... graph partitioning complete (831 edge cuts).
Distributing ParMETIS coloring.
Rebalancing vertices.
Rebalancing volume element connectivity.
Rebalancing markers and surface elements.
14875 vertices including ghost points. 
23674 interior elements including halo cells. 
18780 triangles.
4894 quadrilaterals.
Establishing MPI communication patterns.
Identify vertices.
Storing a mapping from global to local point index.

------------------------- Solution Postprocessing -----------------------
Reading and storing the solution from restart_flow.
Volume output fields: COORDINATES, SOLUTION
  Info: Ignoring the following screen output fields:
  RMS_DENSITY, RMS_NU_TILDE, LIFT, DRAG
Screen output fields: INNER_ITER
  Info: Ignoring the following history output groups:
  RMS_RES, AERO_COEFF
History output group(s): ITER
Warning: No (valid) fields chosen for convergence monitoring. Convergence monitoring inactive.
Warning: No (valid) fields chosen for time convergence monitoring. Time convergence monitoring inactive.
|Paraview                           |flow.vtu                           |
|Paraview surface                   |surface_flow.vtu                   |
|CSV file                           |surface_flow.csv                   |

------------------------- Finalize Solver -------------------------
Deleted CGeometry container.
Deleted CSolver class.
Deleted CConfig container.
Deleted COutput class.

Completed in 0.016586 seconds on 6 cores.

------------------------- Exit Success (SU2_SOL) ------------------------

