
-------------------------------------------------------------------------
|    ___ _   _ ___                                                      |
|   / __| | | |_  )   Release 8.0.0 "Harrier"                           |
|   \__ \ |_| |/ /                                                      |
|   |___/\___//___|   Suite (Computational Fluid Dynamics Code)         |
|                                                                       |
-------------------------------------------------------------------------
| SU2 Project Website: https://su2code.github.io                        |
|                                                                       |
| The SU2 Project is maintained by the SU2 Foundation                   |
| (http://su2foundation.org)                                            |
-------------------------------------------------------------------------
| Copyright 2012-2023, SU2 Contributors                                 |
|                                                                       |
| SU2 is free software; you can redistribute it and/or                  |
| modify it under the terms of the GNU Lesser General Public            |
| License as published by the Free Software Foundation; either          |
| version 2.1 of the License, or (at your option) any later version.    |
|                                                                       |
| SU2 is distributed in the hope that it will be useful,                |
| but WITHOUT ANY WARRANTY; without even the implied warranty of        |
| MERCHANTABILITY or FITNESS FOR A PARTICULAR PURPOSE. See the GNU      |
| Lesser General Public License for more details.                       |
|                                                                       |
| You should have received a copy of the GNU Lesser General Public      |
| License along with SU2. If not, see <http://www.gnu.org/licenses/>.   |
-------------------------------------------------------------------------

Parsing config file for zone 0

----------------- Physical Case Definition ( Zone 0 ) -------------------
Compressible RANS equations.
Turbulence model: Spalart-Allmaras-noft2
Hybrid RANS/LES: No Hybrid RANS/LES
Mach number: 0.734.
Angle of attack (AoA): 2.31 deg, and angle of sideslip (AoS): 0 deg.
Reynolds number: 6.5e+06. Reference length 1.
Fixed CL mode, target value: 0.824.
Reading and writing binary SU2 native restart files.
Read flow solution from: solution_flow.dat.
Dimensional simulation.
The reference area is 1 m^2.
The semi-span will be computed using the max y(3D) value.
The reference length is 1 m.
Reference origin for moment evaluation is (0.25, 0, 0).
Surface(s) where the force coefficients are evaluated: AIRFOIL.

Surface(s) plotted in the output file: AIRFOIL.
Surface(s) affected by the design variables: AIRFOIL.
Input mesh file name: mesh_RAE2822_turb_deform.su2

--------------- Space Numerical Integration ( Zone 0 ) ------------------
Jameson-Schmidt-Turkel scheme (2nd order in space) for the flow inviscid terms.
JST viscous coefficients (2nd & 4th): 0.5, 0.02.
The method includes a grid stretching correction (p = 0.3).
Scalar upwind solver for the turbulence model.
First order integration in space.
Average of gradients with correction (viscous flow terms).
Average of gradients with correction (viscous turbulence terms).
Gradient for viscous and source terms: inverse-distance weighted Least-Squares.

--------------- Time Numerical Integration  ( Zone 0 ) ------------------
Local time stepping (steady state simulation).
Euler implicit method for the flow equations.
FGMRES is used for solving the linear system.
Using a ILU(0) preconditioning.
Convergence criteria of the linear solver: 1e-06.
Max number of linear iterations: 10.
No CFL adaptation.
Courant-Friedrichs-Lewy number:       10
Euler implicit time integration for the turbulence model.

------------------ Convergence Criteria  ( Zone 0 ) ---------------------
Maximum number of solver subiterations: 5500.
Begin convergence monitoring at iteration 10.
Residual minimum value: 1e-12.
Cauchy series min. value: 1e-06.
Number of Cauchy elements: 100.
Begin windowed time average at iteration 0.

-------------------- Output Information ( Zone 0 ) ----------------------
File writing frequency: 
+------------------------------------+
|                     File| Frequency|
+------------------------------------+
|                  RESTART|     10000|
|                 PARAVIEW|     10000|
|         SURFACE_PARAVIEW|     10000|
|              SURFACE_CSV|     10000|
+------------------------------------+
Writing the convergence history file every 1 inner iterations.
Writing the screen convergence history every 1 inner iterations.
The tabular file format is CSV (.csv).
Convergence history file name: history_direct.
Forces breakdown file name: forces_breakdown.dat.
Surface file name: surface_flow.
Volume file name: flow.
Restart file name: restart_flow.dat.

------------- Config File Boundary Information ( Zone 0 ) ---------------
+-----------------------------------------------------------------------+
|                        Marker Type|                        Marker Name|
+-----------------------------------------------------------------------+
|                          Far-field|                           FARFIELD|
+-----------------------------------------------------------------------+
|                     Heat flux wall|                            AIRFOIL|
+-----------------------------------------------------------------------+

-------------------- Output Preprocessing ( Zone 0 ) --------------------

WARNING: SURFACE_PRESSURE_DROP can only be computed for at least 2 surfaces (outlet, inlet, ...)

Screen output fields: INNER_ITER, RMS_DENSITY, RMS_NU_TILDE, LIFT, DRAG
History output group(s): ITER, RMS_RES, AERO_COEFF
Convergence field(s): RMS_DENSITY
Warning: No (valid) fields chosen for time convergence monitoring. Time convergence monitoring inactive.
Volume output fields: COORDINATES, SOLUTION, PRIMITIVE

------------------- Geometry Preprocessing ( Zone 0 ) -------------------
Two dimensional problem.
13937 grid points before partitioning.
22842 volume elements before partitioning.
2 surface markers.
192 boundary elements in index 0 (Marker = AIRFOIL).
40 boundary elements in index 1 (Marker = FARFIELD).
Executing the partitioning functions.
Building the graph adjacency structure.
Calling ParMETIS... graph partitioning complete (831 edge cuts).
Distributing ParMETIS coloring.
Rebalancing vertices.
Rebalancing volume element connectivity.
Rebalancing markers and surface elements.
14875 vertices including ghost points. 
23674 interior elements including halo cells. 
18780 triangles.
4894 quadrilaterals.
Establishing MPI communication patterns.
Setting point connectivity.
Renumbering points (Reverse Cuthill McKee Ordering).
Recomputing point connectivity.
Setting element connectivity.
Checking the numerical grid orientation.
All volume elements are correctly orientend.
All surface elements are correctly orientend.
Identifying edges and vertices.
Setting the control volume structure.
Area of the computational grid: 32209.9.
Searching for the closest normal neighbors to the surfaces.
Storing a mapping from global to local point index.
Compute the surface curvature.
Max K: 176.484. Mean K: 7.88087. Standard deviation K: 24.242.
Checking for periodicity.
Computing mesh quality statistics for the dual control volumes.
+--------------------------------------------------------------+
|           Mesh Quality Metric|        Minimum|        Maximum|
+--------------------------------------------------------------+
|    Orthogonality Angle (deg.)|        75.0975|        89.9992|
|     CV Face Area Aspect Ratio|        1.00427|        3358.46|
|           CV Sub-Volume Ratio|        1.00046|        1215.57|
+--------------------------------------------------------------+
Finding max control volume width.
Communicating number of neighbors.
Wetted area = 2.02178 m.
Area projection in the x-plane = 0.124991 m, y-plane = 0.995873 m.
Max. coordinate in the x-direction = 1 m, y-direction = 0.0620332 m.
Min. coordinate in the x-direction = 0 m, y-direction = -0.0600324 m.
Computing wall distances.

-------------------- Solver Preprocessing ( Zone 0 ) --------------------
WARNING: AoA in the solution file (2.78854 deg.) +
         AoA offset in mesh file (0 deg.) = 2.78854 deg.
WARNING: SU2 will use the dCD/dCL provided in the direct solution file: 0.0176758.
WARNING: SU2 will use the dCMz/dCL provided in the direct solution file: 0.00694473.
Viscous flow: Computing pressure using the ideal gas law
based on the free-stream temperature and a density computed
from the Reynolds number.
Force coefficients computed using free-stream values.

-- Models:
+------------------------------------------------------------------------------+
|          Viscosity Model|        Conductivity Model|              Fluid Model|
+------------------------------------------------------------------------------+
|               SUTHERLAND|          CONSTANT_PRANDTL|             STANDARD_AIR|
+------------------------------------------------------------------------------+
-- Fluid properties:
+------------------------------------------------------------------------------+
|                  Name|    Dim. value|    Ref. value|      Unit|Non-dim. value|
+------------------------------------------------------------------------------+
|        Ref. Viscosity|     1.716e-05|             1|   N.s/m^2|     1.716e-05|
|      Sutherland Temp.|        273.15|             1|         K|        273.15|
|     Sutherland Const.|         110.4|             1|         K|         110.4|
+------------------------------------------------------------------------------+
|        Prandtl (Lam.)|             -|             -|         -|          0.71|
|       Prandtl (Turb.)|             -|             -|         -|           0.9|
+------------------------------------------------------------------------------+
|          Gas Constant|       287.058|             1|  N.m/kg.K|       287.058|
|      Spec. Heat Ratio|             -|             -|         -|           1.4|
+------------------------------------------------------------------------------+
-- Initial and free-stream conditions:
+------------------------------------------------------------------------------+
|                  Name|    Dim. value|    Ref. value|      Unit|Non-dim. value|
+------------------------------------------------------------------------------+
|       Static Pressure|         38515|             1|        Pa|         38515|
|               Density|      0.465631|             1|    kg/m^3|      0.465631|
|           Temperature|        288.15|             1|         K|        288.15|
|          Total Energy|        237984|             1|   m^2/s^2|        237984|
|            Velocity-X|       249.482|             1|       m/s|       249.482|
|            Velocity-Y|       12.1517|             1|       m/s|       12.1517|
|    Velocity Magnitude|       249.778|             1|       m/s|       249.778|
+------------------------------------------------------------------------------+
|             Viscosity|    1.7893e-05|             1|   N.s/m^2|    1.7893e-05|
|          Conductivity|             -|             1|   W/m^2.K|             -|
|     Turb. Kin. Energy|       233.959|             1|   m^2/s^2|       233.959|
|     Spec. Dissipation|        608834|             1|       1/s|        608834|
+------------------------------------------------------------------------------+
|           Mach Number|             -|             -|         -|         0.734|
|       Reynolds Number|             -|             -|         -|       6.5e+06|
+------------------------------------------------------------------------------+
Initialize Jacobian structure (Navier-Stokes). MG level: 0.
Initialize Jacobian structure (SA model).

------------------- Numerics Preprocessing ( Zone 0 ) -------------------

----------------- Integration Preprocessing ( Zone 0 ) ------------------

------------------- Iteration Preprocessing ( Zone 0 ) ------------------
Euler/Navier-Stokes/RANS fluid iteration.

------------------------------ Begin Solver -----------------------------

Simulation Run using the Single-zone Driver
WARNING: SU2 was not compiled for an AVX-capable architecture. Performance could be better,
         see https://su2code.github.io/docs_v7/Build-SU2-Linux-MacOS/#compiler-optimizations
+----------------------------------------------------------------+
|  Inner_Iter|    rms[Rho]|     rms[nu]|          CL|          CD|
+----------------------------------------------------------------+
|           0|   -4.954348|   -6.199216|    0.824092|    0.012013|
|           1|   -5.014622|   -6.300697|    0.824149|    0.012030|
|           2|   -5.078955|   -6.412723|    0.824176|    0.012038|
|           3|   -5.124514|   -6.531010|    0.824183|    0.012040|
|           4|   -5.153015|   -6.654027|    0.824180|    0.012039|
|           5|   -5.171276|   -6.770777|    0.824174|    0.012038|
|           6|   -5.182193|   -6.850794|    0.824171|    0.012038|
|           7|   -5.186354|   -6.870756|    0.824171|    0.012040|
|           8|   -5.184350|   -6.852477|    0.824174|    0.012043|
|           9|   -5.177049|   -6.828826|    0.824180|    0.012047|
|          10|   -5.165521|   -6.814031|    0.824186|    0.012052|
|          11|   -5.151289|   -6.809540|    0.824192|    0.012057|
|          12|   -5.136265|   -6.812002|    0.824197|    0.012063|
|          13|   -5.122227|   -6.817023|    0.824201|    0.012069|
|          14|   -5.110301|   -6.820976|    0.824204|    0.012075|
|          15|   -5.100791|   -6.821957|    0.824205|    0.012080|
|          16|   -5.093327|   -6.819831|    0.824203|    0.012086|
|          17|   -5.087201|   -6.815373|    0.824200|    0.012092|
|          18|   -5.081732|   -6.809341|    0.824195|    0.012097|
|          19|   -5.076545|   -6.802029|    0.824188|    0.012102|
|          20|   -5.071645|   -6.793300|    0.824180|    0.012106|
|          21|   -5.067305|   -6.782859|    0.824170|    0.012111|
|          22|   -5.063861|   -6.770553|    0.824159|    0.012115|
|          23|   -5.061520|   -6.756547|    0.824148|    0.012118|
|          24|   -5.060279|   -6.741339|    0.824136|    0.012121|
|          25|   -5.059931|   -6.725664|    0.824124|    0.012123|
|          26|   -5.060151|   -6.710345|    0.824113|    0.012125|
|          27|   -5.060586|   -6.696167|    0.824102|    0.012126|
|          28|   -5.060942|   -6.683804|    0.824092|    0.012127|
|          29|   -5.061015|   -6.673774|    0.824083|    0.012127|
|          30|   -5.060697|   -6.666424|    0.824074|    0.012127|
|          31|   -5.059956|   -6.661925|    0.824066|    0.012127|
|          32|   -5.058814|   -6.660276|    0.824059|    0.012126|
|          33|   -5.057322|   -6.661314|    0.824052|    0.012124|
|          34|   -5.055553|   -6.664725|    0.824046|    0.012123|
|          35|   -5.053590|   -6.670071|    0.824040|    0.012121|
|          36|   -5.051518|   -6.676819|    0.824034|    0.012119|
|          37|   -5.049417|   -6.684388|    0.824027|    0.012117|
|          38|   -5.047348|   -6.692203|    0.824021|    0.012114|
|          39|   -5.045351|   -6.699755|    0.824014|    0.012112|
|          40|   -5.043442|   -6.706650|    0.824007|    0.012109|
|          41|   -5.041618|   -6.712645|    0.824000|    0.012106|
|          42|   -5.039864|   -6.717653|    0.823993|    0.012104|
|          43|   -5.038163|   -6.721726|    0.823985|    0.012101|
|          44|   -5.036497|   -6.725014|    0.823977|    0.012098|
|          45|   -5.034857|   -6.727724|    0.823968|    0.012095|
|          46|   -5.033232|   -6.730077|    0.823960|    0.012092|
|          47|   -5.031613|   -6.732275|    0.823952|    0.012089|
|          48|   -5.029982|   -6.734489|    0.823945|    0.012086|
|          49|   -5.028312|   -6.736845|    0.823938|    0.012083|
|          50|   -5.026566|   -6.739424|    0.823931|    0.012080|
|          51|   -5.024701|   -6.742261|    0.823926|    0.012077|
|          52|   -5.022671|   -6.745349|    0.823922|    0.012074|
|          53|   -5.020436|   -6.748638|    0.823918|    0.012071|
|          54|   -5.017964|   -6.752045|    0.823916|    0.012068|
|          55|   -5.015236|   -6.755462|    0.823916|    0.012065|
|          56|   -5.012250|   -6.758771|    0.823917|    0.012061|
|          57|   -5.009017|   -6.761864|    0.823919|    0.012058|
|          58|   -5.005560|   -6.764659|    0.823923|    0.012055|
|          59|   -5.001909|   -6.767115|    0.823928|    0.012053|
|          60|   -4.998101|   -6.769234|    0.823934|    0.012050|
|          61|   -4.994175|   -6.771059|    0.823942|    0.012047|
|          62|   -4.990172|   -6.772654|    0.823950|    0.012045|
|          63|   -4.986131|   -6.774087|    0.823959|    0.012042|
|          64|   -4.982092|   -6.775408|    0.823969|    0.012040|
|          65|   -4.978092|   -6.776634|    0.823979|    0.012038|
|          66|   -4.974163|   -6.777752|    0.823989|    0.012035|
|          67|   -4.970335|   -6.778722|    0.823999|    0.012033|
|          68|   -4.966632|   -6.779501|    0.824009|    0.012032|
|          69|   -4.963070|   -6.780058|    0.824019|    0.012030|
|          70|   -4.959662|   -6.780394|    0.824029|    0.012028|
|          71|   -4.956413|   -6.780561|    0.824038|    0.012026|
|          72|   -4.953324|   -6.780655|    0.824046|    0.012025|
|          73|   -4.950394|   -6.780807|    0.824054|    0.012023|
|          74|   -4.947617|   -6.781165|    0.824061|    0.012022|
|          75|   -4.944985|   -6.781871|    0.824068|    0.012020|
|          76|   -4.942487|   -6.783043|    0.824074|    0.012019|
|          77|   -4.940113|   -6.784758|    0.824079|    0.012018|
|          78|   -4.937848|   -6.787047|    0.824084|    0.012017|
|          79|   -4.935676|   -6.789896|    0.824089|    0.012015|
|          80|   -4.933580|   -6.793254|    0.824093|    0.012014|
|          81|   -4.931543|   -6.797046|    0.824097|    0.012013|
|          82|   -4.929549|   -6.801188|    0.824101|    0.012012|
|          83|   -4.927589|   -6.805596|    0.824104|    0.012012|
|          84|   -4.925657|   -6.810204|    0.824108|    0.012011|
|          85|   -4.923757|   -6.814961|    0.824111|    0.012010|
|          86|   -4.921900|   -6.819842|    0.824114|    0.012010|
|          87|   -4.920108|   -6.824838|    0.824117|    0.012009|
|          88|   -4.918409|   -6.829951|    0.824119|    0.012009|
|          89|   -4.916841|   -6.835192|    0.824122|    0.012009|
|          90|   -4.915441|   -6.840566|    0.824125|    0.012008|
|          91|   -4.914250|   -6.846075|    0.824127|    0.012008|
|          92|   -4.913307|   -6.851708|    0.824130|    0.012008|
|          93|   -4.912646|   -6.857445|    0.824132|    0.012008|
|          94|   -4.912295|   -6.863253|    0.824135|    0.012008|
|          95|   -4.912274|   -6.869094|    0.824138|    0.012009|
|          96|   -4.912592|   -6.874922|    0.824141|    0.012009|
|          97|   -4.913251|   -6.880693|    0.824144|    0.012009|
|          98|   -4.914241|   -6.886361|    0.824147|    0.012010|
|          99|   -4.915542|   -6.891884|    0.824150|    0.012011|
|         100|   -4.917123|   -6.897225|    0.824153|    0.012011|
|         101|   -4.918946|   -6.902353|    0.824156|    0.012001|
+-----------------------------------------------------------------------+
|Fixed CL Mode                           |Value                         |
+-----------------------------------------------------------------------+
|Current CL                              |0.824156                      |
|Target CL                               |0.824                         |
|Previous AOA                            |2.78854                       |
|Changed AoA by                          |-0.00076448                   |
+-----------------------------------------------------------------------+
+----------------------------------------------------------------+
|  Inner_Iter|    rms[Rho]|     rms[nu]|          CL|          CD|
+----------------------------------------------------------------+
|         102|   -3.309708|   -6.886556|    0.824160|    0.012002|
|         103|   -3.691691|   -6.901140|    0.824164|    0.012003|
|         104|   -3.930042|   -6.908476|    0.824167|    0.012004|
|         105|   -4.007373|   -6.914193|    0.824171|    0.012005|
|         106|   -4.061748|   -6.919152|    0.824175|    0.012006|
|         107|   -4.132256|   -6.923559|    0.824179|    0.012008|
|         108|   -4.219230|   -6.927488|    0.824183|    0.012009|
|         109|   -4.310293|   -6.930990|    0.824187|    0.012010|
|         110|   -4.389104|   -6.934102|    0.824191|    0.012012|
|         111|   -4.446691|   -6.936845|    0.824195|    0.012013|
|         112|   -4.483800|   -6.939242|    0.824198|    0.012014|
|         113|   -4.503925|   -6.941334|    0.824202|    0.012016|
|         114|   -4.511209|   -6.943172|    0.824205|    0.012017|
|         115|   -4.511991|   -6.944797|    0.824208|    0.012019|
|         116|   -4.513109|   -6.946233|    0.824211|    0.012020|
|         117|   -4.518911|   -6.947490|    0.824214|    0.012021|
|         118|   -4.530242|   -6.948577|    0.824216|    0.012023|
|         119|   -4.545205|   -6.949511|    0.824218|    0.012024|
|         120|   -4.560753|   -6.950317|    0.824220|    0.012025|
|         121|   -4.574445|   -6.951025|    0.824222|    0.012026|
|         122|   -4.585534|   -6.951658|    0.824223|    0.012027|
|         123|   -4.594765|   -6.952232|    0.824224|    0.012028|
|         124|   -4.603327|   -6.952765|    0.824225|    0.012029|
|         125|   -4.611972|   -6.953280|    0.824226|    0.012030|
|         126|   -4.620799|   -6.953803|    0.824226|    0.012031|
|         127|   -4.629491|   -6.954357|    0.824226|    0.012032|
|         128|   -4.637642|   -6.954967|    0.824227|    0.012033|
|         129|   -4.644938|   -6.955657|    0.824227|    0.012034|
|         130|   -4.651205|   -6.956449|    0.824227|    0.012034|
|         131|   -4.656418|   -6.957366|    0.824227|    0.012035|
|         132|   -4.660719|   -6.958429|    0.824227|    0.012036|
|         133|   -4.664422|   -6.959656|    0.824227|    0.012036|
|         134|   -4.667965|   -6.961061|    0.824227|    0.012037|
|         135|   -4.671809|   -6.962655|    0.824227|    0.012037|
|         136|   -4.676329|   -6.964444|    0.824226|    0.012038|
|         137|   -4.681726|   -6.966435|    0.824226|    0.012038|
|         138|   -4.687999|   -6.968627|    0.824226|    0.012038|
|         139|   -4.694948|   -6.971028|    0.824226|    0.012039|
|         140|   -4.702207|   -6.973634|    0.824225|    0.012039|
|         141|   -4.709316|   -6.976442|    0.824225|    0.012040|
|         142|   -4.715811|   -6.979447|    0.824224|    0.012040|
|         143|   -4.721341|   -6.982647|    0.824224|    0.012040|
|         144|   -4.725750|   -6.986041|    0.824223|    0.012040|
|         145|   -4.729113|   -6.989629|    0.824222|    0.012041|
|         146|   -4.731699|   -6.993413|    0.824221|    0.012041|
|         147|   -4.733878|   -6.997393|    0.824219|    0.012041|
|         148|   -4.736010|   -7.001572|    0.824217|    0.012041|
|         149|   -4.738364|   -7.005960|    0.824215|    0.012041|
|         150|   -4.741066|   -7.010554|    0.824213|    0.012041|
|         151|   -4.744100|   -7.015352|    0.824210|    0.012041|
|         152|   -4.747340|   -7.020347|    0.824207|    0.012041|
|         153|   -4.750594|   -7.025533|    0.824203|    0.012040|
|         154|   -4.753661|   -7.030894|    0.824199|    0.012040|
|         155|   -4.756374|   -7.036418|    0.824195|    0.012040|
|         156|   -4.758632|   -7.042089|    0.824190|    0.012039|
|         157|   -4.760405|   -7.047891|    0.824185|    0.012039|
|         158|   -4.761728|   -7.053803|    0.824179|    0.012038|
|         159|   -4.762679|   -7.059805|    0.824173|    0.012038|
|         160|   -4.763352|   -7.065877|    0.824167|    0.012037|
|         161|   -4.763838|   -7.071993|    0.824161|    0.012036|
|         162|   -4.764212|   -7.078121|    0.824154|    0.012036|
|         163|   -4.764526|   -7.084230|    0.824147|    0.012035|
|         164|   -4.764814|   -7.090288|    0.824139|    0.012034|
|         165|   -4.765094|   -7.096263|    0.824132|    0.012033|
|         166|   -4.765377|   -7.102124|    0.824124|    0.012032|
|         167|   -4.765670|   -7.107840|    0.824117|    0.012031|
|         168|   -4.765983|   -7.113382|    0.824109|    0.012030|
|         169|   -4.766323|   -7.118719|    0.824102|    0.012029|
|         170|   -4.766699|   -7.123824|    0.824094|    0.012028|
|         171|   -4.767120|   -7.128675|    0.824087|    0.012027|
|         172|   -4.767589|   -7.133251|    0.824080|    0.012026|
|         173|   -4.768109|   -7.137537|    0.824074|    0.012025|
|         174|   -4.768675|   -7.141527|    0.824067|    0.012024|
|         175|   -4.769283|   -7.145221|    0.824062|    0.012023|
|         176|   -4.769927|   -7.148621|    0.824056|    0.012022|
|         177|   -4.770599|   -7.151736|    0.824051|    0.012021|
|         178|   -4.771295|   -7.154581|    0.824047|    0.012019|
|         179|   -4.772015|   -7.157177|    0.824043|    0.012018|
|         180|   -4.772763|   -7.159553|    0.824040|    0.012017|
|         181|   -4.773545|   -7.161742|    0.824037|    0.012016|
|         182|   -4.774375|   -7.163782|    0.824035|    0.012015|
|         183|   -4.775273|   -7.165715|    0.824033|    0.012014|
|         184|   -4.776262|   -7.167583|    0.824032|    0.012014|
|         185|   -4.777369|   -7.169432|    0.824031|    0.012013|
|         186|   -4.778624|   -7.171304|    0.824031|    0.012012|
|         187|   -4.780061|   -7.173244|    0.824032|    0.012011|
|         188|   -4.781713|   -7.175290|    0.824033|    0.012010|
|         189|   -4.783613|   -7.177481|    0.824034|    0.012009|
|         190|   -4.785792|   -7.179848|    0.824036|    0.012008|
|         191|   -4.788279|   -7.182420|    0.824039|    0.012008|
|         192|   -4.791098|   -7.185220|    0.824041|    0.012007|
|         193|   -4.794264|   -7.188267|    0.824044|    0.012006|
|         194|   -4.797789|   -7.191572|    0.824048|    0.012005|
|         195|   -4.801673|   -7.195142|    0.824051|    0.012005|
|         196|   -4.805907|   -7.198974|    0.824055|    0.012004|
|         197|   -4.810471|   -7.203064|    0.824059|    0.012003|
|         198|   -4.815334|   -7.207397|    0.824064|    0.012003|
|         199|   -4.820454|   -7.211956|    0.824068|    0.012002|
|         200|   -4.825775|   -7.216717|    0.824073|    0.012002|
|         201|   -4.831232|   -7.221652|    0.824077|    0.011996|
+-----------------------------------------------------------------------+
|Fixed CL Mode                           |Value                         |
+-----------------------------------------------------------------------+
|Current CL                              |0.824077                      |
|Target CL                               |0.824                         |
|Previous AOA                            |2.78778                       |
|Changed AoA by                          |-0.000363019                  |
+-----------------------------------------------------------------------+
+----------------------------------------------------------------+
|  Inner_Iter|    rms[Rho]|     rms[nu]|          CL|          CD|
+----------------------------------------------------------------+
|         202|   -3.632658|   -7.205306|    0.824082|    0.011995|
|         203|   -4.011698|   -7.220024|    0.824087|    0.011995|
|         204|   -4.239950|   -7.228018|    0.824092|    0.011994|
|         205|   -4.308948|   -7.234846|    0.824096|    0.011994|
|         206|   -4.357044|   -7.241340|    0.824101|    0.011994|
|         207|   -4.419612|   -7.247658|    0.824106|    0.011993|
|         208|   -4.494777|   -7.253819|    0.824110|    0.011993|
|         209|   -4.569859|   -7.259809|    0.824115|    0.011993|
|         210|   -4.631508|   -7.265602|    0.824119|    0.011992|
|         211|   -4.675051|   -7.271157|    0.824124|    0.011992|
|         212|   -4.703368|   -7.276444|    0.824128|    0.011992|
|         213|   -4.720158|   -7.281462|    0.824132|    0.011992|
|         214|   -4.728452|   -7.286238|    0.824136|    0.011992|
|         215|   -4.732086|   -7.290812|    0.824139|    0.011992|
|         216|   -4.735252|   -7.295212|    0.824143|    0.011992|
|         217|   -4.740809|   -7.299464|    0.824146|    0.011992|
|         218|   -4.749476|   -7.303598|    0.824149|    0.011992|
|         219|   -4.760243|   -7.307652|    0.824152|    0.011992|
|         220|   -4.771467|   -7.311670|    0.824154|    0.011992|
|         221|   -4.781967|   -7.315685|    0.824157|    0.011992|
|         222|   -4.791542|   -7.319719|    0.824159|    0.011993|
|         223|   -4.800722|   -7.323790|    0.824161|    0.011993|
|         224|   -4.810153|   -7.327900|    0.824162|    0.011993|
|         225|   -4.820144|   -7.332048|    0.824163|    0.011994|
|         226|   -4.830586|   -7.336235|    0.824165|    0.011994|
|         227|   -4.841138|   -7.340464|    0.824165|    0.011995|
|         228|   -4.851449|   -7.344738|    0.824166|    0.011995|
|         229|   -4.861290|   -7.349064|    0.824166|    0.011996|
|         230|   -4.870590|   -7.353445|    0.824166|    0.011996|
|         231|   -4.879422|   -7.357884|    0.824166|    0.011997|
|         232|   -4.887993|   -7.362382|    0.824166|    0.011997|
|         233|   -4.896614|   -7.366936|    0.824165|    0.011998|
|         234|   -4.905655|   -7.371538|    0.824165|    0.011999|
|         235|   -4.915472|   -7.376183|    0.824164|    0.011999|
|         236|   -4.926330|   -7.380866|    0.824162|    0.012000|
|         237|   -4.938347|   -7.385577|    0.824161|    0.012001|
|         238|   -4.951463|   -7.390310|    0.824160|    0.012001|
|         239|   -4.965443|   -7.395058|    0.824158|    0.012002|
|         240|   -4.979889|   -7.399814|    0.824156|    0.012003|
|         241|   -4.994289|   -7.404573|    0.824154|    0.012003|
|         242|   -5.008096|   -7.409334|    0.824152|    0.012004|
|         243|   -5.020828|   -7.414099|    0.824150|    0.012005|
|         244|   -5.032169|   -7.418872|    0.824148|    0.012006|
|         245|   -5.042040|   -7.423660|    0.824145|    0.012006|
|         246|   -5.050587|   -7.428474|    0.824143|    0.012007|
|         247|   -5.058118|   -7.433323|    0.824140|    0.012008|
|         248|   -5.064986|   -7.438219|    0.824138|    0.012008|
|         249|   -5.071496|   -7.443170|    0.824135|    0.012009|
|         250|   -5.077832|   -7.448186|    0.824132|    0.012010|
|         251|   -5.084042|   -7.453269|    0.824129|    0.012010|
|         252|   -5.090058|   -7.458424|    0.824126|    0.012011|
|         253|   -5.095742|   -7.463660|    0.824123|    0.012011|
|         254|   -5.100943|   -7.468982|    0.824120|    0.012012|
|         255|   -5.105550|   -7.474398|    0.824117|    0.012013|
|         256|   -5.109524|   -7.479912|    0.824114|    0.012013|
|         257|   -5.112904|   -7.485527|    0.824110|    0.012014|
|         258|   -5.115801|   -7.491251|    0.824107|    0.012014|
|         259|   -5.118364|   -7.497093|    0.824103|    0.012015|
|         260|   -5.120753|   -7.503068|    0.824099|    0.012015|
|         261|   -5.123117|   -7.509189|    0.824095|    0.012015|
|         262|   -5.125572|   -7.515477|    0.824091|    0.012016|
|         263|   -5.128200|   -7.521951|    0.824087|    0.012016|
|         264|   -5.131054|   -7.528637|    0.824083|    0.012016|
|         265|   -5.134158|   -7.535559|    0.824078|    0.012016|
|         266|   -5.137525|   -7.542746|    0.824074|    0.012017|
|         267|   -5.141159|   -7.550226|    0.824069|    0.012017|
|         268|   -5.145062|   -7.558025|    0.824065|    0.012017|
|         269|   -5.149234|   -7.566164|    0.824060|    0.012017|
|         270|   -5.153679|   -7.574660|    0.824056|    0.012017|
|         271|   -5.158397|   -7.583521|    0.824051|    0.012017|
|         272|   -5.163386|   -7.592743|    0.824046|    0.012017|
|         273|   -5.168638|   -7.602308|    0.824042|    0.012017|
|         274|   -5.174141|   -7.612179|    0.824037|    0.012017|
|         275|   -5.179876|   -7.622293|    0.824032|    0.012017|
|         276|   -5.185821|   -7.632564|    0.824028|    0.012017|
|         277|   -5.191949|   -7.642875|    0.824023|    0.012017|
|         278|   -5.198230|   -7.653072|    0.824019|    0.012016|
|         279|   -5.204635|   -7.662973|    0.824015|    0.012016|
|         280|   -5.211134|   -7.672366|    0.824011|    0.012016|
|         281|   -5.217696|   -7.681022|    0.824007|    0.012016|
|         282|   -5.224294|   -7.688704|    0.824003|    0.012015|
|         283|   -5.230900|   -7.695186|    0.824000|    0.012015|
|         284|   -5.237489|   -7.700274|    0.823996|    0.012014|
|         285|   -5.244036|   -7.703825|    0.823993|    0.012014|
|         286|   -5.250519|   -7.705770|    0.823991|    0.012014|
|         287|   -5.256918|   -7.706119|    0.823988|    0.012013|
|         288|   -5.263215|   -7.704968|    0.823986|    0.012013|
|         289|   -5.269393|   -7.702491|    0.823984|    0.012012|
|         290|   -5.275437|   -7.698921|    0.823982|    0.012012|
|         291|   -5.281335|   -7.694536|    0.823980|    0.012011|
|         292|   -5.287077|   -7.689639|    0.823979|    0.012011|
|         293|   -5.292657|   -7.684536|    0.823978|    0.012010|
|         294|   -5.298069|   -7.679518|    0.823977|    0.012010|
|         295|   -5.303312|   -7.674851|    0.823976|    0.012009|
|         296|   -5.308385|   -7.670774|    0.823976|    0.012008|
|         297|   -5.313292|   -7.667488|    0.823976|    0.012008|
|         298|   -5.318039|   -7.665165|    0.823976|    0.012007|
|         299|   -5.322635|   -7.663947|    0.823976|    0.012007|
|         300|   -5.327089|   -7.663944|    0.823977|    0.012006|
|         301|   -5.331415|   -7.665241|    0.823977|    0.012007|
+-----------------------------------------------------------------------+
|Fixed CL Mode                           |Value                         |
+-----------------------------------------------------------------------+
|Current CL                              |0.823977                      |
|Target CL                               |0.824                         |
|Previous AOA                            |2.78742                       |
|Changed AoA by                          |0.000115895                   |
+-----------------------------------------------------------------------+
+----------------------------------------------------------------+
|  Inner_Iter|    rms[Rho]|     rms[nu]|          CL|          CD|
+----------------------------------------------------------------+
|         302|   -4.128678|   -7.654119|    0.823978|    0.012007|
|         303|   -4.513312|   -7.665664|    0.823979|    0.012006|
|         304|   -4.762327|   -7.673020|    0.823980|    0.012006|
|         305|   -4.844987|   -7.680664|    0.823982|    0.012005|
|         306|   -4.897415|   -7.689274|    0.823983|    0.012005|
|         307|   -4.961316|   -7.698921|    0.823984|    0.012004|
|         308|   -5.035339|   -7.709494|    0.823986|    0.012004|
|         309|   -5.104208|   -7.720807|    0.823988|    0.012003|
|         310|   -5.153037|   -7.732609|    0.823989|    0.012003|
|         311|   -5.180157|   -7.744587|    0.823991|    0.012003|
|         312|   -5.193008|   -7.756383|    0.823993|    0.012002|
|         313|   -5.198039|   -7.767622|    0.823994|    0.012002|
|         314|   -5.199159|   -7.777917|    0.823996|    0.012002|
|         315|   -5.199701|   -7.786874|    0.823998|    0.012001|
|         316|   -5.202596|   -7.794110|    0.824000|    0.012001|
|         317|   -5.209435|   -7.799296|    0.824001|    0.012001|
|         318|   -5.220003|   -7.802209|    0.824003|    0.012001|
|         319|   -5.232645|   -7.802766|    0.824004|    0.012001|
|         320|   -5.245223|   -7.801042|    0.824006|    0.012001|
|         321|   -5.256176|   -7.797245|    0.824007|    0.012000|
|         322|   -5.265103|   -7.791689|    0.824009|    0.012000|
|         323|   -5.272558|   -7.784752|    0.824010|    0.012000|
|         324|   -5.279397|   -7.776839|    0.824011|    0.012000|
|         325|   -5.286237|   -7.768344|    0.824012|    0.012000|
|         326|   -5.293286|   -7.759629|    0.824013|    0.012000|
|         327|   -5.300449|   -7.751005|    0.824014|    0.012000|
|         328|   -5.307485|   -7.742726|    0.824015|    0.012000|
|         329|   -5.314125|   -7.734989|    0.824016|    0.012000|
|         330|   -5.320132|   -7.727938|    0.824017|    0.012001|
|         331|   -5.325343|   -7.721672|    0.824017|    0.012001|
|         332|   -5.329724|   -7.716247|    0.824018|    0.012001|
|         333|   -5.333399|   -7.711690|    0.824018|    0.012001|
|         334|   -5.336622|   -7.707999|    0.824019|    0.012001|
|         335|   -5.339721|   -7.705149|    0.824019|    0.012001|
|         336|   -5.343006|   -7.703094|    0.824020|    0.012002|
|         337|   -5.346707|   -7.701772|    0.824020|    0.012002|
|         338|   -5.350935|   -7.701107|    0.824020|    0.012002|
|         339|   -5.355676|   -7.701008|    0.824021|    0.012002|
|         340|   -5.360811|   -7.701381|    0.824021|    0.012003|
|         341|   -5.366151|   -7.702122|    0.824021|    0.012003|
|         342|   -5.371488|   -7.703126|    0.824022|    0.012003|
|         343|   -5.376651|   -7.704286|    0.824022|    0.012003|
|         344|   -5.381554|   -7.705502|    0.824022|    0.012004|
|         345|   -5.386212|   -7.706677|    0.824022|    0.012004|
|         346|   -5.390733|   -7.707724|    0.824023|    0.012004|
|         347|   -5.395281|   -7.708571|    0.824023|    0.012005|
|         348|   -5.400031|   -7.709154|    0.824023|    0.012005|
|         349|   -5.405121|   -7.709429|    0.824024|    0.012006|
|         350|   -5.410632|   -7.709365|    0.824024|    0.012006|
|         351|   -5.416575|   -7.708948|    0.824025|    0.012006|
|         352|   -5.422902|   -7.708178|    0.824025|    0.012007|
|         353|   -5.429523|   -7.707072|    0.824026|    0.012007|
|         354|   -5.436336|   -7.705654|    0.824026|    0.012007|
|         355|   -5.443240|   -7.703955|    0.824026|    0.012008|
|         356|   -5.450161|   -7.702014|    0.824027|    0.012008|
|         357|   -5.457053|   -7.699872|    0.824028|    0.012009|
|         358|   -5.463897|   -7.697569|    0.824028|    0.012009|
|         359|   -5.470696|   -7.695146|    0.824029|    0.012009|
|         360|   -5.477461|   -7.692640|    0.824029|    0.012010|
|         361|   -5.484200|   -7.690086|    0.824030|    0.012010|
|         362|   -5.490914|   -7.687514|    0.824030|    0.012010|
|         363|   -5.497588|   -7.684951|    0.824030|    0.012011|
|         364|   -5.504194|   -7.682421|    0.824031|    0.012011|
|         365|   -5.510694|   -7.679943|    0.824031|    0.012011|
|         366|   -5.517041|   -7.677536|    0.824032|    0.012012|
|         367|   -5.523190|   -7.675218|    0.824032|    0.012012|
|         368|   -5.529094|   -7.673006|    0.824032|    0.012012|
|         369|   -5.534712|   -7.670915|    0.824032|    0.012013|
|         370|   -5.540012|   -7.668962|    0.824032|    0.012013|
|         371|   -5.544963|   -7.667164|    0.824032|    0.012013|
|         372|   -5.549544|   -7.665538|    0.824032|    0.012014|
|         373|   -5.553742|   -7.664102|    0.824032|    0.012014|
|         374|   -5.557547|   -7.662875|    0.824031|    0.012014|
|         375|   -5.560960|   -7.661874|    0.824031|    0.012014|
|         376|   -5.563987|   -7.661118|    0.824030|    0.012014|
|         377|   -5.566643|   -7.660624|    0.824030|    0.012014|
|         378|   -5.568950|   -7.660407|    0.824029|    0.012015|
|         379|   -5.570937|   -7.660481|    0.824028|    0.012015|
|         380|   -5.572639|   -7.660856|    0.824027|    0.012015|
|         381|   -5.574092|   -7.661541|    0.824026|    0.012015|
|         382|   -5.575339|   -7.662540|    0.824024|    0.012015|
|         383|   -5.576421|   -7.663854|    0.824023|    0.012015|
|         384|   -5.577380|   -7.665478|    0.824022|    0.012015|
|         385|   -5.578254|   -7.667405|    0.824020|    0.012015|
|         386|   -5.579080|   -7.669621|    0.824019|    0.012015|
|         387|   -5.579891|   -7.672108|    0.824017|    0.012015|
|         388|   -5.580717|   -7.674845|    0.824015|    0.012015|
|         389|   -5.581582|   -7.677804|    0.824013|    0.012015|
|         390|   -5.582507|   -7.680955|    0.824011|    0.012014|
|         391|   -5.583506|   -7.684266|    0.824010|    0.012014|
|         392|   -5.584592|   -7.687701|    0.824008|    0.012014|
|         393|   -5.585772|   -7.691226|    0.824006|    0.012014|
|         394|   -5.587049|   -7.694803|    0.824004|    0.012014|
|         395|   -5.588423|   -7.698399|    0.824002|    0.012014|
|         396|   -5.589889|   -7.701983|    0.824000|    0.012013|
|         397|   -5.591442|   -7.705524|    0.823998|    0.012013|
|         398|   -5.593071|   -7.709001|    0.823996|    0.012013|
|         399|   -5.594767|   -7.712393|    0.823994|    0.012013|
|         400|   -5.596516|   -7.715688|    0.823992|    0.012013|
|         401|   -5.598304|   -7.718880|    0.823990|    0.012013|
+-----------------------------------------------------------------------+
|Fixed CL Mode                           |Value                         |
+-----------------------------------------------------------------------+
|Current CL                              |0.82399                       |
|Target CL                               |0.824                         |
|Previous AOA                            |2.78753                       |
|Changed AoA by                          |3.85403e-05                   |
+-----------------------------------------------------------------------+
+----------------------------------------------------------------+
|  Inner_Iter|    rms[Rho]|     rms[nu]|          CL|          CD|
+----------------------------------------------------------------+
|         402|   -4.604269|   -7.719712|    0.823989|    0.012013|
|         403|   -4.973157|   -7.723813|    0.823987|    0.012012|
|         404|   -5.188393|   -7.726992|    0.823985|    0.012012|
|         405|   -5.257686|   -7.729953|    0.823984|    0.012012|
|         406|   -5.304761|   -7.732825|    0.823982|    0.012012|
|         407|   -5.359001|   -7.735657|    0.823981|    0.012011|
|         408|   -5.417072|   -7.738473|    0.823979|    0.012011|
|         409|   -5.467639|   -7.741294|    0.823978|    0.012011|
|         410|   -5.502916|   -7.744136|    0.823977|    0.012011|
|         411|   -5.524048|   -7.747017|    0.823976|    0.012010|
|         412|   -5.536039|   -7.749950|    0.823974|    0.012010|
|         413|   -5.542493|   -7.752953|    0.823973|    0.012010|
|         414|   -5.545540|   -7.756042|    0.823972|    0.012010|
|         415|   -5.547138|   -7.759228|    0.823971|    0.012009|
|         416|   -5.549162|   -7.762520|    0.823971|    0.012009|
|         417|   -5.552760|   -7.765923|    0.823970|    0.012009|
|         418|   -5.558014|   -7.769439|    0.823969|    0.012009|
|         419|   -5.564176|   -7.773069|    0.823969|    0.012009|
|         420|   -5.570260|   -7.776813|    0.823968|    0.012009|
|         421|   -5.575593|   -7.780669|    0.823968|    0.012008|
|         422|   -5.580042|   -7.784630|    0.823967|    0.012008|
|         423|   -5.583866|   -7.788690|    0.823967|    0.012008|
|         424|   -5.587417|   -7.792840|    0.823967|    0.012008|
|         425|   -5.590921|   -7.797068|    0.823966|    0.012008|
|         426|   -5.594437|   -7.801364|    0.823966|    0.012008|
|         427|   -5.597916|   -7.805718|    0.823966|    0.012008|
|         428|   -5.601269|   -7.810118|    0.823966|    0.012008|
|         429|   -5.604407|   -7.814554|    0.823966|    0.012008|
|         430|   -5.607252|   -7.819017|    0.823966|    0.012007|
|         431|   -5.609738|   -7.823496|    0.823966|    0.012007|
|         432|   -5.611833|   -7.827985|    0.823967|    0.012007|
|         433|   -5.613544|   -7.832474|    0.823967|    0.012007|
|         434|   -5.614919|   -7.836956|    0.823967|    0.012007|
|         435|   -5.616030|   -7.841424|    0.823968|    0.012008|
|         436|   -5.616951|   -7.845871|    0.823968|    0.012008|
|         437|   -5.617734|   -7.850290|    0.823969|    0.012008|
|         438|   -5.618403|   -7.854675|    0.823969|    0.012008|
|         439|   -5.618948|   -7.859019|    0.823970|    0.012008|
|         440|   -5.619332|   -7.863314|    0.823970|    0.012008|
|         441|   -5.619503|   -7.867551|    0.823971|    0.012008|
|         442|   -5.619411|   -7.871723|    0.823972|    0.012008|
|         443|   -5.619024|   -7.875820|    0.823972|    0.012008|
|         444|   -5.618339|   -7.879831|    0.823973|    0.012008|
|         445|   -5.617382|   -7.883746|    0.823974|    0.012009|
|         446|   -5.616207|   -7.887555|    0.823974|    0.012009|
|         447|   -5.614877|   -7.891245|    0.823975|    0.012009|
|         448|   -5.613456|   -7.894808|    0.823976|    0.012009|
|         449|   -5.611994|   -7.898234|    0.823977|    0.012009|
|         450|   -5.610526|   -7.901515|    0.823978|    0.012009|
|         451|   -5.609069|   -7.904643|    0.823978|    0.012010|
|         452|   -5.607627|   -7.907616|    0.823979|    0.012010|
|         453|   -5.606203|   -7.910431|    0.823980|    0.012010|
|         454|   -5.604799|   -7.913090|    0.823980|    0.012010|
|         455|   -5.603425|   -7.915596|    0.823981|    0.012011|
|         456|   -5.602099|   -7.917956|    0.823982|    0.012011|
|         457|   -5.600846|   -7.920179|    0.823983|    0.012011|
|         458|   -5.599699|   -7.922276|    0.823983|    0.012011|
|         459|   -5.598688|   -7.924259|    0.823984|    0.012011|
|         460|   -5.597845|   -7.926144|    0.823984|    0.012012|
|         461|   -5.597197|   -7.927947|    0.823985|    0.012012|
|         462|   -5.596766|   -7.929683|    0.823986|    0.012012|
|         463|   -5.596568|   -7.931369|    0.823986|    0.012012|
|         464|   -5.596612|   -7.933021|    0.823987|    0.012013|
|         465|   -5.596904|   -7.934653|    0.823987|    0.012013|
|         466|   -5.597446|   -7.936278|    0.823987|    0.012013|
|         467|   -5.598237|   -7.937909|    0.823988|    0.012013|
|         468|   -5.599274|   -7.939554|    0.823988|    0.012013|
|         469|   -5.600551|   -7.941222|    0.823988|    0.012014|
|         470|   -5.602059|   -7.942921|    0.823989|    0.012014|
|         471|   -5.603790|   -7.944652|    0.823989|    0.012014|
|         472|   -5.605730|   -7.946421|    0.823989|    0.012014|
|         473|   -5.607866|   -7.948230|    0.823989|    0.012014|
|         474|   -5.610182|   -7.950082|    0.823989|    0.012014|
|         475|   -5.612659|   -7.951980|    0.823989|    0.012015|
|         476|   -5.615279|   -7.953925|    0.823989|    0.012015|
|         477|   -5.618021|   -7.955918|    0.823989|    0.012015|
|         478|   -5.620866|   -7.957961|    0.823989|    0.012015|
|         479|   -5.623791|   -7.960054|    0.823989|    0.012015|
|         480|   -5.626775|   -7.962196|    0.823989|    0.012015|
|         481|   -5.629799|   -7.964390|    0.823989|    0.012015|
|         482|   -5.632840|   -7.966636|    0.823989|    0.012015|
|         483|   -5.635878|   -7.968933|    0.823988|    0.012015|
|         484|   -5.638894|   -7.971283|    0.823988|    0.012015|
|         485|   -5.641868|   -7.973687|    0.823987|    0.012015|
|         486|   -5.644782|   -7.976145|    0.823987|    0.012015|
|         487|   -5.647618|   -7.978659|    0.823987|    0.012015|
|         488|   -5.650358|   -7.981229|    0.823986|    0.012015|
|         489|   -5.652987|   -7.983856|    0.823985|    0.012015|
|         490|   -5.655489|   -7.986542|    0.823985|    0.012015|
|         491|   -5.657849|   -7.989286|    0.823984|    0.012015|
|         492|   -5.660053|   -7.992092|    0.823984|    0.012015|
|         493|   -5.662088|   -7.994959|    0.823983|    0.012015|
|         494|   -5.663944|   -7.997888|    0.823982|    0.012015|
|         495|   -5.665609|   -8.000880|    0.823982|    0.012015|
|         496|   -5.667075|   -8.003932|    0.823981|    0.012015|
|         497|   -5.668334|   -8.007042|    0.823980|    0.012015|
|         498|   -5.669381|   -8.010204|    0.823979|    0.012014|
|         499|   -5.670213|   -8.013412|    0.823978|    0.012014|
|         500|   -5.670827|   -8.016657|    0.823978|    0.012014|
|         501|   -5.671225|   -8.019931|    0.823977|    0.012016|
+-----------------------------------------------------------------------+
|Fixed CL Mode                           |Value                         |
+-----------------------------------------------------------------------+
|Current CL                              |0.823977                      |
|Target CL                               |0.824                         |
|Previous AOA                            |2.78757                       |
|Changed AoA by                          |0.000111525                   |
+-----------------------------------------------------------------------+
+----------------------------------------------------------------+
|  Inner_Iter|    rms[Rho]|     rms[nu]|          CL|          CD|
+----------------------------------------------------------------+
|         502|   -4.145539|   -7.954892|    0.823976|    0.012015|
|         503|   -4.526686|   -7.988686|    0.823975|    0.012015|
|         504|   -4.763367|   -8.001493|    0.823975|    0.012015|
|         505|   -4.840039|   -8.009993|    0.823974|    0.012015|
|         506|   -4.893742|   -8.017024|    0.823973|    0.012015|
|         507|   -4.962655|   -8.023276|    0.823972|    0.012015|
|         508|   -5.046531|   -8.028951|    0.823971|    0.012014|
|         509|   -5.132745|   -8.034139|    0.823971|    0.012014|
|         510|   -5.205832|   -8.038869|    0.823970|    0.012014|
|         511|   -5.258630|   -8.043093|    0.823969|    0.012014|
|         512|   -5.293120|   -8.046776|    0.823969|    0.012014|
|         513|   -5.312993|   -8.049955|    0.823968|    0.012013|
|         514|   -5.321792|   -8.052716|    0.823968|    0.012013|
|         515|   -5.324764|   -8.055125|    0.823967|    0.012013|
|         516|   -5.327797|   -8.057204|    0.823967|    0.012013|
|         517|   -5.334822|   -8.058955|    0.823966|    0.012013|
|         518|   -5.346724|   -8.060396|    0.823966|    0.012012|
|         519|   -5.361915|   -8.061582|    0.823965|    0.012012|
|         520|   -5.377758|   -8.062592|    0.823965|    0.012012|
|         521|   -5.392161|   -8.063504|    0.823965|    0.012012|
|         522|   -5.404515|   -8.064372|    0.823964|    0.012012|
|         523|   -5.415485|   -8.065227|    0.823964|    0.012011|
|         524|   -5.426073|   -8.066087|    0.823964|    0.012011|
|         525|   -5.436839|   -8.066959|    0.823964|    0.012011|
|         526|   -5.447714|   -8.067852|    0.823964|    0.012011|
|         527|   -5.458240|   -8.068780|    0.823964|    0.012011|
|         528|   -5.467901|   -8.069753|    0.823964|    0.012011|
|         529|   -5.476324|   -8.070783|    0.823964|    0.012011|
|         530|   -5.483339|   -8.071882|    0.823964|    0.012010|
|         531|   -5.488982|   -8.073058|    0.823964|    0.012010|
|         532|   -5.493488|   -8.074318|    0.823964|    0.012010|
|         533|   -5.497275|   -8.075669|    0.823964|    0.012010|
|         534|   -5.500871|   -8.077113|    0.823964|    0.012010|
|         535|   -5.504803|   -8.078647|    0.823965|    0.012010|
|         536|   -5.509485|   -8.080261|    0.823965|    0.012010|
|         537|   -5.515144|   -8.081955|    0.823965|    0.012010|
|         538|   -5.521797|   -8.083726|    0.823965|    0.012010|
|         539|   -5.529263|   -8.085569|    0.823966|    0.012010|
|         540|   -5.537199|   -8.087485|    0.823966|    0.012010|
|         541|   -5.545170|   -8.089478|    0.823967|    0.012010|
|         542|   -5.552740|   -8.091555|    0.823967|    0.012010|
|         543|   -5.559577|   -8.093727|    0.823967|    0.012010|
|         544|   -5.565536|   -8.096010|    0.823968|    0.012010|
|         545|   -5.570695|   -8.098417|    0.823968|    0.012010|
|         546|   -5.575324|   -8.100966|    0.823969|    0.012010|
|         547|   -5.579790|   -8.103672|    0.823969|    0.012011|
|         548|   -5.584459|   -8.106552|    0.823970|    0.012011|
|         549|   -5.589607|   -8.109616|    0.823971|    0.012011|
|         550|   -5.595366|   -8.112874|    0.823971|    0.012011|
|         551|   -5.601720|   -8.116335|    0.823972|    0.012011|
|         552|   -5.608530|   -8.120006|    0.823972|    0.012011|
|         553|   -5.615575|   -8.123888|    0.823973|    0.012011|
|         554|   -5.622608|   -8.127988|    0.823974|    0.012012|
|         555|   -5.629408|   -8.132315|    0.823975|    0.012012|
|         556|   -5.635817|   -8.136876|    0.823975|    0.012012|
|         557|   -5.641755|   -8.141678|    0.823976|    0.012012|
|         558|   -5.647215|   -8.146725|    0.823977|    0.012012|
|         559|   -5.652248|   -8.152027|    0.823978|    0.012013|
|         560|   -5.656929|   -8.157589|    0.823978|    0.012013|
|         561|   -5.661338|   -8.163419|    0.823979|    0.012013|
|         562|   -5.665538|   -8.169524|    0.823980|    0.012013|
|         563|   -5.669568|   -8.175910|    0.823981|    0.012013|
|         564|   -5.673445|   -8.182579|    0.823982|    0.012014|
|         565|   -5.677170|   -8.189530|    0.823983|    0.012014|
|         566|   -5.680736|   -8.196755|    0.823984|    0.012014|
|         567|   -5.684137|   -8.204242|    0.823985|    0.012014|
|         568|   -5.687375|   -8.211967|    0.823986|    0.012015|
|         569|   -5.690459|   -8.219891|    0.823986|    0.012015|
|         570|   -5.693407|   -8.227964|    0.823987|    0.012015|
|         571|   -5.696241|   -8.236117|    0.823988|    0.012015|
|         572|   -5.698988|   -8.244263|    0.823989|    0.012015|
|         573|   -5.701672|   -8.252298|    0.823990|    0.012016|
|         574|   -5.704319|   -8.260097|    0.823990|    0.012016|
|         575|   -5.706952|   -8.267518|    0.823991|    0.012016|
|         576|   -5.709590|   -8.274406|    0.823992|    0.012016|
|         577|   -5.712255|   -8.280602|    0.823992|    0.012016|
|         578|   -5.714964|   -8.285951|    0.823993|    0.012017|
|         579|   -5.717739|   -8.290316|    0.823993|    0.012017|
|         580|   -5.720598|   -8.293587|    0.823993|    0.012017|
|         581|   -5.723563|   -8.295698|    0.823994|    0.012017|
|         582|   -5.726653|   -8.296630|    0.823994|    0.012017|
|         583|   -5.729889|   -8.296421|    0.823994|    0.012017|
|         584|   -5.733290|   -8.295161|    0.823994|    0.012017|
|         585|   -5.736875|   -8.292988|    0.823994|    0.012018|
|         586|   -5.740661|   -8.290078|    0.823994|    0.012018|
|         587|   -5.744663|   -8.286635|    0.823993|    0.012018|
|         588|   -5.748894|   -8.282874|    0.823993|    0.012018|
|         589|   -5.753366|   -8.279013|    0.823993|    0.012018|
|         590|   -5.758085|   -8.275263|    0.823992|    0.012018|
|         591|   -5.763056|   -8.271818|    0.823992|    0.012018|
|         592|   -5.768280|   -8.268855|    0.823991|    0.012018|
|         593|   -5.773756|   -8.266524|    0.823991|    0.012018|
|         594|   -5.779476|   -8.264949|    0.823990|    0.012018|
|         595|   -5.785429|   -8.264227|    0.823989|    0.012018|
|         596|   -5.791601|   -8.264440|    0.823988|    0.012018|
|         597|   -5.797973|   -8.265642|    0.823988|    0.012018|
|         598|   -5.804519|   -8.267865|    0.823987|    0.012018|
|         599|   -5.811212|   -8.271119|    0.823986|    0.012018|
|         600|   -5.818020|   -8.275385|    0.823985|    0.012017|
|         601|   -5.824904|   -8.280620|    0.823984|    0.012018|
+-----------------------------------------------------------------------+
|Fixed CL Mode                           |Value                         |
+-----------------------------------------------------------------------+
|Current CL                              |0.823984                      |
|Target CL                               |0.824                         |
|Previous AOA                            |2.78768                       |
|Changed AoA by                          |7.55595e-05                   |
+-----------------------------------------------------------------------+
+----------------------------------------------------------------+
|  Inner_Iter|    rms[Rho]|     rms[nu]|          CL|          CD|
+----------------------------------------------------------------+
|         602|   -4.314732|   -8.187069|    0.823983|    0.012018|
|         603|   -4.696230|   -8.235532|    0.823982|    0.012018|
|         604|   -4.932338|   -8.256756|    0.823981|    0.012018|
|         605|   -5.007403|   -8.272541|    0.823980|    0.012018|
|         606|   -5.059927|   -8.286528|    0.823979|    0.012018|
|         607|   -5.128169|   -8.299447|    0.823978|    0.012018|
|         608|   -5.211971|   -8.311399|    0.823977|    0.012017|
|         609|   -5.299180|   -8.322356|    0.823976|    0.012017|
|         610|   -5.374863|   -8.332142|    0.823975|    0.012017|
|         611|   -5.431726|   -8.340457|    0.823974|    0.012017|
|         612|   -5.470974|   -8.347003|    0.823973|    0.012017|
|         613|   -5.495355|   -8.351638|    0.823972|    0.012017|
|         614|   -5.507682|   -8.354371|    0.823972|    0.012016|
|         615|   -5.513072|   -8.355251|    0.823971|    0.012016|
|         616|   -5.517868|   -8.354318|    0.823970|    0.012016|
|         617|   -5.526584|   -8.351661|    0.823969|    0.012016|
|         618|   -5.540498|   -8.347445|    0.823968|    0.012016|
|         619|   -5.558156|   -8.341960|    0.823968|    0.012015|
|         620|   -5.576853|   -8.335534|    0.823967|    0.012015|
|         621|   -5.594336|   -8.328488|    0.823967|    0.012015|
|         622|   -5.609897|   -8.321088|    0.823966|    0.012015|
|         623|   -5.624206|   -8.313552|    0.823966|    0.012015|
|         624|   -5.638295|   -8.306046|    0.823965|    0.012014|
|         625|   -5.652657|   -8.298714|    0.823965|    0.012014|
|         626|   -5.667006|   -8.291682|    0.823965|    0.012014|
|         627|   -5.680563|   -8.285058|    0.823964|    0.012014|
|         628|   -5.692494|   -8.278935|    0.823964|    0.012014|
|         629|   -5.702220|   -8.273385|    0.823964|    0.012014|
|         630|   -5.709531|   -8.268455|    0.823964|    0.012013|
|         631|   -5.714589|   -8.264176|    0.823964|    0.012013|
|         632|   -5.717883|   -8.260552|    0.823964|    0.012013|
|         633|   -5.720140|   -8.257574|    0.823964|    0.012013|
|         634|   -5.722183|   -8.255208|    0.823964|    0.012013|
|         635|   -5.724760|   -8.253409|    0.823964|    0.012013|
|         636|   -5.728406|   -8.252118|    0.823965|    0.012013|
|         637|   -5.733374|   -8.251270|    0.823965|    0.012013|
|         638|   -5.739628|   -8.250794|    0.823965|    0.012012|
|         639|   -5.746879|   -8.250619|    0.823965|    0.012012|
|         640|   -5.754648|   -8.250673|    0.823966|    0.012012|
|         641|   -5.762357|   -8.250890|    0.823966|    0.012012|
|         642|   -5.769458|   -8.251208|    0.823966|    0.012012|
|         643|   -5.775559|   -8.251574|    0.823967|    0.012012|
|         644|   -5.780535|   -8.251940|    0.823967|    0.012012|
|         645|   -5.784556|   -8.252269|    0.823968|    0.012012|
|         646|   -5.788027|   -8.252527|    0.823968|    0.012012|
|         647|   -5.791466|   -8.252688|    0.823969|    0.012012|
|         648|   -5.795370|   -8.252732|    0.823969|    0.012012|
|         649|   -5.800112|   -8.252642|    0.823970|    0.012012|
|         650|   -5.805887|   -8.252407|    0.823970|    0.012012|
|         651|   -5.812710|   -8.252017|    0.823971|    0.012012|
|         652|   -5.820447|   -8.251470|    0.823972|    0.012012|
|         653|   -5.828870|   -8.250764|    0.823972|    0.012012|
|         654|   -5.837716|   -8.249898|    0.823973|    0.012012|
|         655|   -5.846746|   -8.248876|    0.823974|    0.012012|
|         656|   -5.855788|   -8.247708|    0.823974|    0.012012|
|         657|   -5.864755|   -8.246407|    0.823975|    0.012012|
|         658|   -5.873645|   -8.244983|    0.823976|    0.012012|
|         659|   -5.882515|   -8.243451|    0.823976|    0.012013|
|         660|   -5.891456|   -8.241826|    0.823977|    0.012013|
|         661|   -5.900556|   -8.240127|    0.823978|    0.012013|
|         662|   -5.909878|   -8.238371|    0.823978|    0.012013|
|         663|   -5.919451|   -8.236582|    0.823979|    0.012013|
|         664|   -5.929263|   -8.234783|    0.823980|    0.012013|
|         665|   -5.939272|   -8.233001|    0.823980|    0.012013|
|         666|   -5.949412|   -8.231262|    0.823981|    0.012013|
|         667|   -5.959610|   -8.229596|    0.823982|    0.012013|
|         668|   -5.969790|   -8.228031|    0.823983|    0.012014|
|         669|   -5.979881|   -8.226596|    0.823983|    0.012014|
|         670|   -5.989819|   -8.225318|    0.823984|    0.012014|
|         671|   -5.999544|   -8.224220|    0.823985|    0.012014|
|         672|   -6.008999|   -8.223323|    0.823985|    0.012014|
|         673|   -6.018128|   -8.222641|    0.823986|    0.012014|
|         674|   -6.026875|   -8.222184|    0.823986|    0.012014|
|         675|   -6.035182|   -8.221954|    0.823987|    0.012015|
|         676|   -6.042995|   -8.221947|    0.823987|    0.012015|
|         677|   -6.050265|   -8.222150|    0.823988|    0.012015|
|         678|   -6.056951|   -8.222544|    0.823988|    0.012015|
|         679|   -6.063026|   -8.223105|    0.823989|    0.012015|
|         680|   -6.068479|   -8.223804|    0.823989|    0.012015|
|         681|   -6.073314|   -8.224605|    0.823989|    0.012015|
|         682|   -6.077554|   -8.225474|    0.823990|    0.012015|
|         683|   -6.081234|   -8.226372|    0.823990|    0.012016|
|         684|   -6.084407|   -8.227265|    0.823990|    0.012016|
|         685|   -6.087132|   -8.228118|    0.823990|    0.012016|
|         686|   -6.089480|   -8.228904|    0.823990|    0.012016|
|         687|   -6.091524|   -8.229604|    0.823990|    0.012016|
|         688|   -6.093341|   -8.230205|    0.823990|    0.012016|
|         689|   -6.095006|   -8.230706|    0.823990|    0.012016|
|         690|   -6.096593|   -8.231115|    0.823990|    0.012016|
|         691|   -6.098170|   -8.231452|    0.823990|    0.012016|
|         692|   -6.099797|   -8.231745|    0.823990|    0.012017|
|         693|   -6.101530|   -8.232031|    0.823989|    0.012017|
|         694|   -6.103414|   -8.232354|    0.823989|    0.012017|
|         695|   -6.105488|   -8.232762|    0.823989|    0.012017|
|         696|   -6.107782|   -8.233306|    0.823988|    0.012017|
|         697|   -6.110318|   -8.234036|    0.823988|    0.012017|
|         698|   -6.113110|   -8.234999|    0.823988|    0.012017|
|         699|   -6.116165|   -8.236239|    0.823987|    0.012017|
|         700|   -6.119484|   -8.237791|    0.823987|    0.012017|
|         701|   -6.123061|   -8.239683|    0.823986|    0.012018|
+-----------------------------------------------------------------------+
|Fixed CL Mode                           |Value                         |
+-----------------------------------------------------------------------+
|Current CL                              |0.823986                      |
|Target CL                               |0.824                         |
|Previous AOA                            |2.78776                       |
|Changed AoA by                          |6.6817e-05                    |
+-----------------------------------------------------------------------+
+----------------------------------------------------------------+
|  Inner_Iter|    rms[Rho]|     rms[nu]|          CL|          CD|
+----------------------------------------------------------------+
|         702|   -4.368356|   -8.174560|    0.823986|    0.012018|
|         703|   -4.751142|   -8.207645|    0.823985|    0.012018|
|         704|   -4.990085|   -8.220337|    0.823984|    0.012018|
|         705|   -5.066100|   -8.229071|    0.823984|    0.012018|
|         706|   -5.118850|   -8.236557|    0.823983|    0.012018|
|         707|   -5.187767|   -8.243431|    0.823983|    0.012018|
|         708|   -5.273106|   -8.249892|    0.823982|    0.012018|
|         709|   -5.362829|   -8.256044|    0.823982|    0.012018|
|         710|   -5.441611|   -8.261908|    0.823981|    0.012018|
|         711|   -5.501457|   -8.267421|    0.823980|    0.012017|
|         712|   -5.543114|   -8.272508|    0.823980|    0.012017|
|         713|   -5.569129|   -8.277150|    0.823979|    0.012017|
|         714|   -5.582302|   -8.281362|    0.823979|    0.012017|
|         715|   -5.588108|   -8.285144|    0.823978|    0.012017|
|         716|   -5.593442|   -8.288444|    0.823978|    0.012017|
|         717|   -5.603240|   -8.291193|    0.823977|    0.012017|
|         718|   -5.618938|   -8.293348|    0.823977|    0.012017|
|         719|   -5.639002|   -8.294911|    0.823976|    0.012017|
|         720|   -5.660464|   -8.295928|    0.823976|    0.012017|
|         721|   -5.680778|   -8.296451|    0.823975|    0.012016|
|         722|   -5.699105|   -8.296524|    0.823975|    0.012016|
|         723|   -5.716219|   -8.296183|    0.823975|    0.012016|
|         724|   -5.733373|   -8.295462|    0.823974|    0.012016|
|         725|   -5.751219|   -8.294403|    0.823974|    0.012016|
|         726|   -5.769464|   -8.293063|    0.823974|    0.012016|
|         727|   -5.787148|   -8.291512|    0.823973|    0.012016|
|         728|   -5.803141|   -8.289825|    0.823973|    0.012015|
|         729|   -5.816543|   -8.288079|    0.823973|    0.012015|
|         730|   -5.826891|   -8.286344|    0.823973|    0.012015|
|         731|   -5.834224|   -8.284684|    0.823973|    0.012015|
|         732|   -5.839080|   -8.283152|    0.823973|    0.012015|
|         733|   -5.842384|   -8.281784|    0.823973|    0.012015|
|         734|   -5.845244|   -8.280598|    0.823973|    0.012015|
|         735|   -5.848697|   -8.279604|    0.823973|    0.012014|
|         736|   -5.853509|   -8.278799|    0.823973|    0.012014|
|         737|   -5.860064|   -8.278170|    0.823973|    0.012014|
|         738|   -5.868352|   -8.277696|    0.823973|    0.012014|
|         739|   -5.878000|   -8.277350|    0.823973|    0.012014|
|         740|   -5.888338|   -8.277106|    0.823973|    0.012014|
|         741|   -5.898519|   -8.276937|    0.823973|    0.012014|
|         742|   -5.907688|   -8.276818|    0.823973|    0.012014|
|         743|   -5.915197|   -8.276727|    0.823973|    0.012014|
|         744|   -5.920795|   -8.276645|    0.823974|    0.012013|
|         745|   -5.924696|   -8.276558|    0.823974|    0.012013|
|         746|   -5.927493|   -8.276453|    0.823974|    0.012013|
|         747|   -5.929960|   -8.276323|    0.823974|    0.012013|
|         748|   -5.932839|   -8.276159|    0.823975|    0.012013|
|         749|   -5.936681|   -8.275956|    0.823975|    0.012013|
|         750|   -5.941769|   -8.275709|    0.823975|    0.012013|
|         751|   -5.948123|   -8.275415|    0.823976|    0.012013|
|         752|   -5.955547|   -8.275075|    0.823976|    0.012013|
|         753|   -5.963710|   -8.274691|    0.823976|    0.012013|
|         754|   -5.972235|   -8.274260|    0.823977|    0.012013|
|         755|   -5.980781|   -8.273788|    0.823977|    0.012013|
|         756|   -5.989108|   -8.273286|    0.823978|    0.012013|
|         757|   -5.997108|   -8.272764|    0.823978|    0.012013|
|         758|   -6.004797|   -8.272235|    0.823978|    0.012013|
|         759|   -6.012287|   -8.271712|    0.823979|    0.012013|
|         760|   -6.019734|   -8.271213|    0.823979|    0.012013|
|         761|   -6.027292|   -8.270754|    0.823980|    0.012013|
|         762|   -6.035082|   -8.270356|    0.823980|    0.012013|
|         763|   -6.043173|   -8.270040|    0.823981|    0.012013|
|         764|   -6.051585|   -8.269831|    0.823981|    0.012013|
|         765|   -6.060292|   -8.269750|    0.823982|    0.012013|
|         766|   -6.069245|   -8.269820|    0.823983|    0.012013|
|         767|   -6.078384|   -8.270065|    0.823983|    0.012013|
|         768|   -6.087649|   -8.270502|    0.823984|    0.012013|
|         769|   -6.096988|   -8.271148|    0.823984|    0.012013|
|         770|   -6.106358|   -8.272014|    0.823985|    0.012013|
|         771|   -6.115720|   -8.273106|    0.823985|    0.012013|
|         772|   -6.125040|   -8.274423|    0.823986|    0.012013|
|         773|   -6.134276|   -8.275956|    0.823986|    0.012013|
|         774|   -6.143382|   -8.277688|    0.823987|    0.012013|
|         775|   -6.152304|   -8.279594|    0.823987|    0.012013|
|         776|   -6.160982|   -8.281641|    0.823988|    0.012013|
|         777|   -6.169353|   -8.283785|    0.823988|    0.012014|
|         778|   -6.177356|   -8.285978|    0.823989|    0.012014|
|         779|   -6.184935|   -8.288165|    0.823989|    0.012014|
|         780|   -6.192042|   -8.290289|    0.823989|    0.012014|
|         781|   -6.198643|   -8.292291|    0.823989|    0.012014|
|         782|   -6.204715|   -8.294112|    0.823990|    0.012014|
|         783|   -6.210252|   -8.295701|    0.823990|    0.012014|
|         784|   -6.215260|   -8.297014|    0.823990|    0.012014|
|         785|   -6.219761|   -8.298019|    0.823990|    0.012014|
|         786|   -6.223788|   -8.298695|    0.823990|    0.012014|
|         787|   -6.227385|   -8.299039|    0.823990|    0.012014|
|         788|   -6.230602|   -8.299065|    0.823990|    0.012015|
|         789|   -6.233498|   -8.298799|    0.823990|    0.012015|
|         790|   -6.236130|   -8.298284|    0.823990|    0.012015|
|         791|   -6.238561|   -8.297576|    0.823990|    0.012015|
|         792|   -6.240847|   -8.296739|    0.823990|    0.012015|
|         793|   -6.243043|   -8.295847|    0.823990|    0.012015|
|         794|   -6.245198|   -8.294974|    0.823989|    0.012015|
|         795|   -6.247354|   -8.294196|    0.823989|    0.012015|
|         796|   -6.249546|   -8.293588|    0.823989|    0.012015|
|         797|   -6.251803|   -8.293217|    0.823988|    0.012015|
|         798|   -6.254144|   -8.293147|    0.823988|    0.012015|
|         799|   -6.256584|   -8.293429|    0.823988|    0.012015|
|         800|   -6.259130|   -8.294106|    0.823987|    0.012016|
|         801|   -6.261784|   -8.295210|    0.823987|    0.012017|
+-----------------------------------------------------------------------+
|Fixed CL Mode                           |Value                         |
+-----------------------------------------------------------------------+
|Current CL                              |0.823987                      |
|Target CL                               |0.824                         |
|Previous AOA                            |2.78782                       |
|Changed AoA by                          |6.45287e-05                   |
+-----------------------------------------------------------------------+
+----------------------------------------------------------------+
|  Inner_Iter|    rms[Rho]|     rms[nu]|          CL|          CD|
+----------------------------------------------------------------+
|         802|   -4.383556|   -8.218772|    0.823986|    0.012017|
|         803|   -4.766993|   -8.255991|    0.823986|    0.012017|
|         804|   -5.007730|   -8.269764|    0.823985|    0.012017|
|         805|   -5.084609|   -8.278951|    0.823985|    0.012017|
|         806|   -5.137591|   -8.286727|    0.823984|    0.012017|
|         807|   -5.206751|   -8.293848|    0.823984|    0.012017|
|         808|   -5.292468|   -8.300559|    0.823983|    0.012017|
|         809|   -5.382554|   -8.306992|    0.823983|    0.012017|
|         810|   -5.461354|   -8.313204|    0.823982|    0.012017|
|         811|   -5.520695|   -8.319154|    0.823982|    0.012017|
|         812|   -5.561480|   -8.324805|    0.823981|    0.012017|
|         813|   -5.586550|   -8.330183|    0.823981|    0.012017|
|         814|   -5.598966|   -8.335354|    0.823980|    0.012017|
|         815|   -5.604334|   -8.340363|    0.823980|    0.012017|
|         816|   -5.609542|   -8.345181|    0.823979|    0.012017|
|         817|   -5.619449|   -8.349749|    0.823979|    0.012017|
|         818|   -5.635420|   -8.354022|    0.823978|    0.012017|
|         819|   -5.655863|   -8.357992|    0.823978|    0.012017|
|         820|   -5.677755|   -8.361690|    0.823977|    0.012017|
|         821|   -5.698510|   -8.365152|    0.823977|    0.012017|
|         822|   -5.717274|   -8.368390|    0.823977|    0.012017|
|         823|   -5.734853|   -8.371396|    0.823976|    0.012017|
|         824|   -5.752561|   -8.374157|    0.823976|    0.012017|
|         825|   -5.771111|   -8.376668|    0.823976|    0.012017|
|         826|   -5.790251|   -8.378938|    0.823976|    0.012017|
|         827|   -5.809022|   -8.380999|    0.823975|    0.012017|
|         828|   -5.826248|   -8.382893|    0.823975|    0.012017|
|         829|   -5.840945|   -8.384672|    0.823975|    0.012017|
|         830|   -5.852545|   -8.386390|    0.823975|    0.012016|
|         831|   -5.861002|   -8.388098|    0.823975|    0.012016|
|         832|   -5.866810|   -8.389842|    0.823975|    0.012016|
|         833|   -5.870912|   -8.391651|    0.823975|    0.012016|
|         834|   -5.874481|   -8.393541|    0.823974|    0.012016|
|         835|   -5.878641|   -8.395509|    0.823974|    0.012016|
|         836|   -5.884239|   -8.397551|    0.823974|    0.012016|
|         837|   -5.891726|   -8.399643|    0.823974|    0.012016|
|         838|   -5.901127|   -8.401757|    0.823975|    0.012016|
|         839|   -5.912067|   -8.403860|    0.823975|    0.012016|
|         840|   -5.923837|   -8.405919|    0.823975|    0.012016|
|         841|   -5.935503|   -8.407902|    0.823975|    0.012016|
|         842|   -5.946098|   -8.409785|    0.823975|    0.012016|
|         843|   -5.954858|   -8.411548|    0.823975|    0.012016|
|         844|   -5.961456|   -8.413178|    0.823975|    0.012015|
|         845|   -5.966095|   -8.414668|    0.823975|    0.012015|
|         846|   -5.969422|   -8.416015|    0.823976|    0.012015|
|         847|   -5.972312|   -8.417223|    0.823976|    0.012015|
|         848|   -5.975612|   -8.418291|    0.823976|    0.012015|
|         849|   -5.979959|   -8.419223|    0.823976|    0.012015|
|         850|   -5.985695|   -8.420019|    0.823977|    0.012015|
|         851|   -5.992863|   -8.420682|    0.823977|    0.012015|
|         852|   -6.001262|   -8.421218|    0.823977|    0.012015|
|         853|   -6.010533|   -8.421628|    0.823977|    0.012015|
|         854|   -6.020259|   -8.421913|    0.823978|    0.012015|
|         855|   -6.030055|   -8.422077|    0.823978|    0.012015|
|         856|   -6.039651|   -8.422131|    0.823979|    0.012015|
|         857|   -6.048923|   -8.422091|    0.823979|    0.012015|
|         858|   -6.057898|   -8.421971|    0.823979|    0.012015|
|         859|   -6.066713|   -8.421790|    0.823980|    0.012014|
|         860|   -6.075567|   -8.421570|    0.823980|    0.012014|
|         861|   -6.084661|   -8.421339|    0.823981|    0.012014|
|         862|   -6.094159|   -8.421127|    0.823981|    0.012014|
|         863|   -6.104169|   -8.420970|    0.823982|    0.012014|
|         864|   -6.114741|   -8.420908|    0.823982|    0.012014|
|         865|   -6.125873|   -8.420983|    0.823983|    0.012014|
|         866|   -6.137530|   -8.421239|    0.823983|    0.012014|
|         867|   -6.149664|   -8.421719|    0.823984|    0.012014|
|         868|   -6.162226|   -8.422463|    0.823985|    0.012014|
|         869|   -6.175172|   -8.423511|    0.823985|    0.012014|
|         870|   -6.188468|   -8.424893|    0.823986|    0.012014|
|         871|   -6.202082|   -8.426632|    0.823986|    0.012014|
|         872|   -6.215982|   -8.428742|    0.823987|    0.012014|
|         873|   -6.230123|   -8.431226|    0.823987|    0.012014|
|         874|   -6.244447|   -8.434069|    0.823988|    0.012014|
|         875|   -6.258872|   -8.437247|    0.823988|    0.012014|
|         876|   -6.273298|   -8.440716|    0.823989|    0.012014|
|         877|   -6.287603|   -8.444419|    0.823989|    0.012014|
|         878|   -6.301648|   -8.448281|    0.823990|    0.012014|
|         879|   -6.315285|   -8.452216|    0.823990|    0.012014|
|         880|   -6.328361|   -8.456125|    0.823991|    0.012014|
|         881|   -6.340725|   -8.459899|    0.823991|    0.012014|
|         882|   -6.352238|   -8.463429|    0.823991|    0.012014|
|         883|   -6.362780|   -8.466608|    0.823991|    0.012014|
|         884|   -6.372253|   -8.469339|    0.823992|    0.012014|
|         885|   -6.380597|   -8.471543|    0.823992|    0.012014|
|         886|   -6.387782|   -8.473159|    0.823992|    0.012014|
|         887|   -6.393819|   -8.474157|    0.823992|    0.012014|
|         888|   -6.398755|   -8.474537|    0.823992|    0.012014|
|         889|   -6.402669|   -8.474330|    0.823992|    0.012014|
|         890|   -6.405666|   -8.473597|    0.823992|    0.012014|
|         891|   -6.407872|   -8.472425|    0.823992|    0.012014|
|         892|   -6.409419|   -8.470920|    0.823992|    0.012014|
|         893|   -6.410446|   -8.469206|    0.823992|    0.012014|
|         894|   -6.411086|   -8.467409|    0.823992|    0.012014|
|         895|   -6.411464|   -8.465660|    0.823992|    0.012014|
|         896|   -6.411695|   -8.464083|    0.823992|    0.012014|
|         897|   -6.411877|   -8.462793|    0.823992|    0.012014|
|         898|   -6.412096|   -8.461892|    0.823991|    0.012014|
|         899|   -6.412422|   -8.461466|    0.823991|    0.012014|
|         900|   -6.412914|   -8.461584|    0.823991|    0.012015|
|         901|   -6.413618|   -8.462296|    0.823991|    0.012015|
+-----------------------------------------------------------------------+
|Fixed CL Mode                           |Value                         |
+-----------------------------------------------------------------------+
|Current CL                              |0.823991                      |
|Target CL                               |0.824                         |
|Previous AOA                            |2.78789                       |
[...]
|        5298|   -6.037190|   -7.951704|    0.824237|    0.012019|
|        5299|   -6.043894|   -7.955303|    0.824237|    0.012019|
|        5300|   -6.050204|   -7.958956|    0.824238|    0.012018|
|        5301|   -6.056077|   -7.962679|    0.824238|    0.012018|
|        5302|   -6.061490|   -7.966483|    0.824238|    0.012018|
|        5303|   -6.066427|   -7.970380|    0.824238|    0.012018|
|        5304|   -6.070882|   -7.974378|    0.824238|    0.012018|
|        5305|   -6.074866|   -7.978481|    0.824238|    0.012018|
|        5306|   -6.078397|   -7.982694|    0.824238|    0.012018|
|        5307|   -6.081506|   -7.987018|    0.824238|    0.012018|
|        5308|   -6.084232|   -7.991455|    0.824239|    0.012018|
|        5309|   -6.086623|   -7.996006|    0.824239|    0.012018|
|        5310|   -6.088734|   -8.000674|    0.824239|    0.012018|
|        5311|   -6.090615|   -8.005462|    0.824239|    0.012018|
|        5312|   -6.092326|   -8.010371|    0.824239|    0.012018|
|        5313|   -6.093923|   -8.015407|    0.824239|    0.012018|
|        5314|   -6.095462|   -8.020571|    0.824239|    0.012018|
|        5315|   -6.096995|   -8.025870|    0.824239|    0.012018|
|        5316|   -6.098572|   -8.031306|    0.824240|    0.012018|
|        5317|   -6.100237|   -8.036884|    0.824240|    0.012018|
|        5318|   -6.102029|   -8.042610|    0.824240|    0.012018|
|        5319|   -6.103981|   -8.048486|    0.824240|    0.012018|
|        5320|   -6.106119|   -8.054516|    0.824240|    0.012019|
|        5321|   -6.108462|   -8.060705|    0.824240|    0.012019|
|        5322|   -6.111023|   -8.067055|    0.824241|    0.012019|
|        5323|   -6.113808|   -8.073568|    0.824241|    0.012019|
|        5324|   -6.116816|   -8.080242|    0.824241|    0.012019|
|        5325|   -6.120039|   -8.087074|    0.824241|    0.012019|
|        5326|   -6.123465|   -8.094059|    0.824241|    0.012019|
|        5327|   -6.127073|   -8.101192|    0.824241|    0.012019|
|        5328|   -6.130840|   -8.108464|    0.824242|    0.012019|
|        5329|   -6.134734|   -8.115864|    0.824242|    0.012019|
|        5330|   -6.138723|   -8.123383|    0.824242|    0.012019|
|        5331|   -6.142768|   -8.131008|    0.824242|    0.012019|
|        5332|   -6.146830|   -8.138726|    0.824242|    0.012019|
|        5333|   -6.150867|   -8.146522|    0.824242|    0.012020|
|        5334|   -6.154838|   -8.154381|    0.824243|    0.012020|
|        5335|   -6.158703|   -8.162287|    0.824243|    0.012020|
|        5336|   -6.162423|   -8.170228|    0.824243|    0.012020|
|        5337|   -6.165966|   -8.178191|    0.824243|    0.012020|
|        5338|   -6.169302|   -8.186163|    0.824243|    0.012020|
|        5339|   -6.172410|   -8.194134|    0.824243|    0.012020|
|        5340|   -6.175275|   -8.202093|    0.824243|    0.012020|
|        5341|   -6.177888|   -8.210033|    0.824244|    0.012020|
|        5342|   -6.180252|   -8.217946|    0.824244|    0.012020|
|        5343|   -6.182374|   -8.225829|    0.824244|    0.012020|
|        5344|   -6.184273|   -8.233679|    0.824244|    0.012020|
|        5345|   -6.185972|   -8.241496|    0.824244|    0.012021|
|        5346|   -6.187500|   -8.249281|    0.824244|    0.012021|
|        5347|   -6.188892|   -8.257037|    0.824244|    0.012021|
|        5348|   -6.190187|   -8.264768|    0.824244|    0.012021|
|        5349|   -6.191428|   -8.272478|    0.824245|    0.012021|
|        5350|   -6.192657|   -8.280173|    0.824245|    0.012021|
|        5351|   -6.193917|   -8.287861|    0.824245|    0.012021|
|        5352|   -6.195250|   -8.295547|    0.824245|    0.012021|
|        5353|   -6.196696|   -8.303238|    0.824245|    0.012021|
|        5354|   -6.198294|   -8.310943|    0.824245|    0.012021|
|        5355|   -6.200078|   -8.318673|    0.824245|    0.012021|
|        5356|   -6.202080|   -8.326431|    0.824245|    0.012021|
|        5357|   -6.204325|   -8.334219|    0.824245|    0.012021|
|        5358|   -6.206836|   -8.342040|    0.824245|    0.012021|
|        5359|   -6.209630|   -8.349895|    0.824245|    0.012021|
|        5360|   -6.212721|   -8.357786|    0.824245|    0.012021|
|        5361|   -6.216117|   -8.365711|    0.824245|    0.012021|
|        5362|   -6.219821|   -8.373671|    0.824245|    0.012021|
|        5363|   -6.223831|   -8.381662|    0.824245|    0.012021|
|        5364|   -6.228140|   -8.389679|    0.824245|    0.012021|
|        5365|   -6.232737|   -8.397718|    0.824245|    0.012021|
|        5366|   -6.237605|   -8.405771|    0.824245|    0.012021|
|        5367|   -6.242722|   -8.413831|    0.824245|    0.012021|
|        5368|   -6.248062|   -8.421889|    0.824245|    0.012021|
|        5369|   -6.253595|   -8.429934|    0.824245|    0.012021|
|        5370|   -6.259285|   -8.437957|    0.824245|    0.012021|
|        5371|   -6.265093|   -8.445952|    0.824245|    0.012021|
|        5372|   -6.270977|   -8.453901|    0.824245|    0.012021|
|        5373|   -6.276892|   -8.461787|    0.824245|    0.012021|
|        5374|   -6.282790|   -8.469591|    0.824245|    0.012021|
|        5375|   -6.288622|   -8.477299|    0.824245|    0.012021|
|        5376|   -6.294339|   -8.484893|    0.824245|    0.012020|
|        5377|   -6.299894|   -8.492355|    0.824245|    0.012020|
|        5378|   -6.305240|   -8.499669|    0.824245|    0.012020|
|        5379|   -6.310335|   -8.506814|    0.824245|    0.012020|
|        5380|   -6.315139|   -8.513772|    0.824245|    0.012020|
|        5381|   -6.319621|   -8.520522|    0.824246|    0.012020|
|        5382|   -6.323752|   -8.527037|    0.824246|    0.012020|
|        5383|   -6.327514|   -8.533294|    0.824246|    0.012020|
|        5384|   -6.330893|   -8.539270|    0.824246|    0.012020|
|        5385|   -6.333883|   -8.544942|    0.824246|    0.012020|
|        5386|   -6.336487|   -8.550287|    0.824246|    0.012020|
|        5387|   -6.338714|   -8.555279|    0.824246|    0.012020|
|        5388|   -6.340576|   -8.559892|    0.824246|    0.012019|
|        5389|   -6.342094|   -8.564098|    0.824246|    0.012019|
|        5390|   -6.343291|   -8.567872|    0.824246|    0.012019|
|        5391|   -6.344193|   -8.571185|    0.824246|    0.012019|
|        5392|   -6.344828|   -8.574014|    0.824246|    0.012019|
|        5393|   -6.345223|   -8.576332|    0.824247|    0.012019|
|        5394|   -6.345408|   -8.578116|    0.824247|    0.012019|
|        5395|   -6.345408|   -8.579351|    0.824247|    0.012019|
|        5396|   -6.345250|   -8.580025|    0.824247|    0.012019|
|        5397|   -6.344957|   -8.580134|    0.824247|    0.012019|
|        5398|   -6.344549|   -8.579681|    0.824247|    0.012018|
|        5399|   -6.344045|   -8.578674|    0.824248|    0.012018|
|        5400|   -6.343461|   -8.577132|    0.824248|    0.012018|
|        5401|   -6.342809|   -8.575079|    0.824248|    0.012018|
|        5402|   -6.342102|   -8.572547|    0.824248|    0.012018|
|        5403|   -6.341346|   -8.569576|    0.824248|    0.012018|
|        5404|   -6.340550|   -8.566204|    0.824249|    0.012018|
|        5405|   -6.339719|   -8.562481|    0.824249|    0.012018|
|        5406|   -6.338857|   -8.558461|    0.824249|    0.012018|
|        5407|   -6.337967|   -8.554201|    0.824249|    0.012018|
|        5408|   -6.337052|   -8.549758|    0.824250|    0.012018|
|        5409|   -6.336115|   -8.545187|    0.824250|    0.012017|
|        5410|   -6.335158|   -8.540544|    0.824250|    0.012017|
|        5411|   -6.334182|   -8.535880|    0.824250|    0.012017|
|        5412|   -6.333190|   -8.531245|    0.824250|    0.012017|
|        5413|   -6.332186|   -8.526683|    0.824251|    0.012017|
|        5414|   -6.331172|   -8.522244|    0.824251|    0.012017|
|        5415|   -6.330152|   -8.517964|    0.824251|    0.012017|
|        5416|   -6.329130|   -8.513870|    0.824251|    0.012017|
|        5417|   -6.328111|   -8.509987|    0.824252|    0.012017|
|        5418|   -6.327101|   -8.506341|    0.824252|    0.012017|
|        5419|   -6.326106|   -8.502947|    0.824252|    0.012017|
|        5420|   -6.325133|   -8.499818|    0.824252|    0.012017|
|        5421|   -6.324191|   -8.496962|    0.824252|    0.012017|
|        5422|   -6.323286|   -8.494387|    0.824252|    0.012017|
|        5423|   -6.322430|   -8.492092|    0.824253|    0.012017|
|        5424|   -6.321631|   -8.490077|    0.824253|    0.012017|
|        5425|   -6.320902|   -8.488336|    0.824253|    0.012017|
|        5426|   -6.320253|   -8.486864|    0.824253|    0.012017|
|        5427|   -6.319696|   -8.485656|    0.824253|    0.012017|
|        5428|   -6.319245|   -8.484706|    0.824253|    0.012017|
|        5429|   -6.318912|   -8.484005|    0.824254|    0.012017|
|        5430|   -6.318712|   -8.483546|    0.824254|    0.012017|
|        5431|   -6.318658|   -8.483319|    0.824254|    0.012017|
|        5432|   -6.318764|   -8.483316|    0.824254|    0.012017|
|        5433|   -6.319045|   -8.483527|    0.824254|    0.012017|
|        5434|   -6.319515|   -8.483943|    0.824254|    0.012017|
|        5435|   -6.320186|   -8.484557|    0.824254|    0.012017|
|        5436|   -6.321072|   -8.485359|    0.824254|    0.012017|
|        5437|   -6.322185|   -8.486342|    0.824255|    0.012017|
|        5438|   -6.323535|   -8.487501|    0.824255|    0.012017|
|        5439|   -6.325133|   -8.488828|    0.824255|    0.012017|
|        5440|   -6.326986|   -8.490319|    0.824255|    0.012017|
|        5441|   -6.329102|   -8.491969|    0.824255|    0.012017|
|        5442|   -6.331484|   -8.493772|    0.824255|    0.012017|
|        5443|   -6.334134|   -8.495726|    0.824255|    0.012017|
|        5444|   -6.337054|   -8.497827|    0.824255|    0.012017|
|        5445|   -6.340239|   -8.500070|    0.824255|    0.012017|
|        5446|   -6.343685|   -8.502455|    0.824255|    0.012017|
|        5447|   -6.347383|   -8.504979|    0.824255|    0.012017|
|        5448|   -6.351320|   -8.507636|    0.824255|    0.012018|
|        5449|   -6.355482|   -8.510422|    0.824255|    0.012018|
|        5450|   -6.359850|   -8.513329|    0.824255|    0.012018|
|        5451|   -6.364402|   -8.516354|    0.824255|    0.012018|
|        5452|   -6.369112|   -8.519490|    0.824255|    0.012018|
|        5453|   -6.373951|   -8.522733|    0.824255|    0.012018|
|        5454|   -6.378886|   -8.526076|    0.824255|    0.012018|
|        5455|   -6.383882|   -8.529515|    0.824255|    0.012018|
|        5456|   -6.388900|   -8.533043|    0.824255|    0.012018|
|        5457|   -6.393900|   -8.536653|    0.824255|    0.012018|
|        5458|   -6.398838|   -8.540339|    0.824255|    0.012018|
|        5459|   -6.403670|   -8.544094|    0.824255|    0.012018|
|        5460|   -6.408353|   -8.547909|    0.824255|    0.012018|
|        5461|   -6.412843|   -8.551778|    0.824255|    0.012019|
|        5462|   -6.417097|   -8.555691|    0.824255|    0.012019|
|        5463|   -6.421076|   -8.559642|    0.824255|    0.012019|
|        5464|   -6.424743|   -8.563622|    0.824255|    0.012019|
|        5465|   -6.428067|   -8.567623|    0.824255|    0.012019|
|        5466|   -6.431023|   -8.571638|    0.824255|    0.012019|
|        5467|   -6.433590|   -8.575657|    0.824255|    0.012019|
|        5468|   -6.435756|   -8.579674|    0.824255|    0.012019|
|        5469|   -6.437515|   -8.583682|    0.824255|    0.012019|
|        5470|   -6.438869|   -8.587671|    0.824254|    0.012019|
|        5471|   -6.439830|   -8.591635|    0.824254|    0.012019|
|        5472|   -6.440411|   -8.595565|    0.824254|    0.012019|
|        5473|   -6.440634|   -8.599454|    0.824254|    0.012019|
|        5474|   -6.440526|   -8.603293|    0.824254|    0.012019|
|        5475|   -6.440119|   -8.607074|    0.824254|    0.012019|
|        5476|   -6.439447|   -8.610790|    0.824254|    0.012019|
|        5477|   -6.438548|   -8.614431|    0.824254|    0.012019|
|        5478|   -6.437461|   -8.617988|    0.824254|    0.012020|
|        5479|   -6.436225|   -8.621454|    0.824254|    0.012020|
|        5480|   -6.434881|   -8.624819|    0.824254|    0.012020|
|        5481|   -6.433468|   -8.628075|    0.824253|    0.012020|
|        5482|   -6.432021|   -8.631214|    0.824253|    0.012020|
|        5483|   -6.430577|   -8.634229|    0.824253|    0.012020|
|        5484|   -6.429169|   -8.637112|    0.824253|    0.012020|
|        5485|   -6.427827|   -8.639859|    0.824253|    0.012020|
|        5486|   -6.426579|   -8.642463|    0.824253|    0.012020|
|        5487|   -6.425451|   -8.644921|    0.824253|    0.012020|
|        5488|   -6.424463|   -8.647236|    0.824253|    0.012020|
|        5489|   -6.423637|   -8.649404|    0.824253|    0.012020|
|        5490|   -6.422989|   -8.651423|    0.824253|    0.012020|
|        5491|   -6.422533|   -8.653293|    0.824253|    0.012020|
|        5492|   -6.422281|   -8.655014|    0.824253|    0.012020|
|        5493|   -6.422244|   -8.656590|    0.824252|    0.012020|
|        5494|   -6.422428|   -8.658027|    0.824252|    0.012020|
|        5495|   -6.422840|   -8.659329|    0.824252|    0.012019|
|        5496|   -6.423482|   -8.660506|    0.824252|    0.012019|
|        5497|   -6.424358|   -8.661564|    0.824252|    0.012019|
|        5498|   -6.425467|   -8.662515|    0.824252|    0.012019|
|        5499|   -6.426810|   -8.663366|    0.824253|    0.012005|
+-----------------------------------------------------------------------+
|Fixed CL Mode (Finite Difference)       |Value                         |
+-----------------------------------------------------------------------+
|Delta CL / Delta AoA                    |0.252263                      |
|Delta CD / Delta CL                     |0.0179085                     |
|Delta CMz / Delta CL                    |0.00958483                    |
+-----------------------------------------------------------------------+
Writing Flow Meta-Data file: flow.meta

----------------------------- Solver Exit -------------------------------

Maximum number of iterations reached (ITER = 5500) before convergence.
+-----------------------------------------------------------------------+
|      Convergence Field     |     Value    |   Criterion  |  Converged |
+-----------------------------------------------------------------------+
|                    rms[Rho]|      -6.42681|         < -12|          No|
+-----------------------------------------------------------------------+
-------------------------------------------------------------------------

--------------------------- Finalizing Solver ---------------------------
Deleted CNumerics container.
Deleted CIntegration container.
Deleted CSolver container.
Deleted CIteration container.
Deleted CInterface container.
Deleted CGeometry container.
Deleted CFreeFormDefBox class.
Deleted CSurfaceMovement class.
Deleted CVolumetricMovement class.
Deleted CConfig container.
Deleted nInst container.
Deleted COutput class.
-------------------------------------------------------------------------

------------------------- Exit Success (SU2_CFD) ------------------------


-------------------------------------------------------------------------
|    ___ _   _ ___                                                      |
|   / __| | | |_  )   Release 8.0.0 "Harrier"                           |
|   \__ \ |_| |/ /                                                      |
|   |___/\___//___|   Suite (Solution Exporting Code)                   |
|                                                                       |
-------------------------------------------------------------------------
| SU2 Project Website: https://su2code.github.io                        |
|                                                                       |
| The SU2 Project is maintained by the SU2 Foundation                   |
| (http://su2foundation.org)                                            |
-------------------------------------------------------------------------
| Copyright 2012-2023, SU2 Contributors                                 |
|                                                                       |
| SU2 is free software; you can redistribute it and/or                  |
| modify it under the terms of the GNU Lesser General Public            |
| License as published by the Free Software Foundation; either          |
| version 2.1 of the License, or (at your option) any later version.    |
|                                                                       |
| SU2 is distributed in the hope that it will be useful,                |
| but WITHOUT ANY WARRANTY; without even the implied warranty of        |
| MERCHANTABILITY or FITNESS FOR A PARTICULAR PURPOSE. See the GNU      |
| Lesser General Public License for more details.                       |
|                                                                       |
| You should have received a copy of the GNU Lesser General Public      |
| License along with SU2. If not, see <http://www.gnu.org/licenses/>.   |
-------------------------------------------------------------------------

----------------- Physical Case Definition ( Zone 0 ) -------------------
Input mesh file name: mesh_RAE2822_turb_deform.su2

-------------------- Output Information ( Zone 0 ) ----------------------
The tabular file format is CSV (.csv).
Flow variables file name: flow.

------------- Config File Boundary Information ( Zone 0 ) ---------------
+-----------------------------------------------------------------------+
|                        Marker Type|                        Marker Name|
+-----------------------------------------------------------------------+
|                          Far-field|                           FARFIELD|
+-----------------------------------------------------------------------+
|                     Heat flux wall|                            AIRFOIL|
+-----------------------------------------------------------------------+
Two dimensional problem.
13937 grid points before partitioning.
22842 volume elements before partitioning.
2 surface markers.
192 boundary elements in index 0 (Marker = AIRFOIL).
40 boundary elements in index 1 (Marker = FARFIELD).
Executing the partitioning functions.
Building the graph adjacency structure.
Calling ParMETIS... graph partitioning complete (831 edge cuts).
Distributing ParMETIS coloring.
Rebalancing vertices.
Rebalancing volume element connectivity.
Rebalancing markers and surface elements.
14875 vertices including ghost points. 
23674 interior elements including halo cells. 
18780 triangles.
4894 quadrilaterals.
Establishing MPI communication patterns.
Identify vertices.
Storing a mapping from global to local point index.

------------------------- Solution Postprocessing -----------------------
Reading and storing the solution from restart_flow.
Volume output fields: COORDINATES, SOLUTION
  Info: Ignoring the following screen output fields:
  RMS_DENSITY, RMS_NU_TILDE, LIFT, DRAG
Screen output fields: INNER_ITER
  Info: Ignoring the following history output groups:
  RMS_RES, AERO_COEFF
History output group(s): ITER
Warning: No (valid) fields chosen for convergence monitoring. Convergence monitoring inactive.
Warning: No (valid) fields chosen for time convergence monitoring. Time convergence monitoring inactive.
|Paraview                           |flow.vtu                           |
|Paraview surface                   |surface_flow.vtu                   |
|CSV file                           |surface_flow.csv                   |

------------------------- Finalize Solver -------------------------
Deleted CGeometry container.
Deleted CSolver class.
Deleted CConfig container.
Deleted COutput class.

Completed in 0.017450 seconds on 6 cores.

------------------------- Exit Success (SU2_SOL) ------------------------

