
-------------------------------------------------------------------------
|    ___ _   _ ___                                                      |
|   / __| | | |_  )   Release 8.0.0 "Harrier"                           |
|   \__ \ |_| |/ /                                                      |
|   |___/\___//___|   Suite (Computational Fluid Dynamics Code)         |
|                                                                       |
-------------------------------------------------------------------------
| SU2 Project Website: https://su2code.github.io                        |
|                                                                       |
| The SU2 Project is maintained by the SU2 Foundation                   |
| (http://su2foundation.org)                                            |
-------------------------------------------------------------------------
| Copyright 2012-2023, SU2 Contributors                                 |
|                                                                       |
| SU2 is free software; you can redistribute it and/or                  |
| modify it under the terms of the GNU Lesser General Public            |
| License as published by the Free Software Foundation; either          |
| version 2.1 of the License, or (at your option) any later version.    |
|                                                                       |
| SU2 is distributed in the hope that it will be useful,                |
| but WITHOUT ANY WARRANTY; without even the implied warranty of        |
| MERCHANTABILITY or FITNESS FOR A PARTICULAR PURPOSE. See the GNU      |
| Lesser General Public License for more details.                       |
|                                                                       |
| You should have received a copy of the GNU Lesser General Public      |
| License along with SU2. If not, see <http://www.gnu.org/licenses/>.   |
-------------------------------------------------------------------------

Parsing config file for zone 0

----------------- Physical Case Definition ( Zone 0 ) -------------------
Compressible RANS equations.
Turbulence model: Spalart-Allmaras-noft2
Hybrid RANS/LES: No Hybrid RANS/LES
Mach number: 0.734.
Angle of attack (AoA): 2.31 deg, and angle of sideslip (AoS): 0 deg.
Reynolds number: 6.5e+06. Reference length 1.
Fixed CL mode, target value: 0.824.
Reading and writing binary SU2 native restart files.
Read flow solution from: solution_flow.dat.
Dimensional simulation.
The reference area is 1 m^2.
The semi-span will be computed using the max y(3D) value.
The reference length is 1 m.
Reference origin for moment evaluation is (0.25, 0, 0).
Surface(s) where the force coefficients are evaluated: AIRFOIL.

Surface(s) plotted in the output file: AIRFOIL.
Surface(s) affected by the design variables: AIRFOIL.
Input mesh file name: mesh_RAE2822_turb_deform.su2

--------------- Space Numerical Integration ( Zone 0 ) ------------------
Jameson-Schmidt-Turkel scheme (2nd order in space) for the flow inviscid terms.
JST viscous coefficients (2nd & 4th): 0.5, 0.02.
The method includes a grid stretching correction (p = 0.3).
Scalar upwind solver for the turbulence model.
First order integration in space.
Average of gradients with correction (viscous flow terms).
Average of gradients with correction (viscous turbulence terms).
Gradient for viscous and source terms: inverse-distance weighted Least-Squares.

--------------- Time Numerical Integration  ( Zone 0 ) ------------------
Local time stepping (steady state simulation).
Euler implicit method for the flow equations.
FGMRES is used for solving the linear system.
Using a ILU(0) preconditioning.
Convergence criteria of the linear solver: 1e-06.
Max number of linear iterations: 10.
No CFL adaptation.
Courant-Friedrichs-Lewy number:       10
Euler implicit time integration for the turbulence model.

------------------ Convergence Criteria  ( Zone 0 ) ---------------------
Maximum number of solver subiterations: 5500.
Begin convergence monitoring at iteration 10.
Residual minimum value: 1e-12.
Cauchy series min. value: 1e-06.
Number of Cauchy elements: 100.
Begin windowed time average at iteration 0.

-------------------- Output Information ( Zone 0 ) ----------------------
File writing frequency: 
+------------------------------------+
|                     File| Frequency|
+------------------------------------+
|                  RESTART|     10000|
|                 PARAVIEW|     10000|
|         SURFACE_PARAVIEW|     10000|
|              SURFACE_CSV|     10000|
+------------------------------------+
Writing the convergence history file every 1 inner iterations.
Writing the screen convergence history every 1 inner iterations.
The tabular file format is CSV (.csv).
Convergence history file name: history_direct.
Forces breakdown file name: forces_breakdown.dat.
Surface file name: surface_flow.
Volume file name: flow.
Restart file name: restart_flow.dat.

------------- Config File Boundary Information ( Zone 0 ) ---------------
+-----------------------------------------------------------------------+
|                        Marker Type|                        Marker Name|
+-----------------------------------------------------------------------+
|                          Far-field|                           FARFIELD|
+-----------------------------------------------------------------------+
|                     Heat flux wall|                            AIRFOIL|
+-----------------------------------------------------------------------+

-------------------- Output Preprocessing ( Zone 0 ) --------------------

WARNING: SURFACE_PRESSURE_DROP can only be computed for at least 2 surfaces (outlet, inlet, ...)

Screen output fields: INNER_ITER, RMS_DENSITY, RMS_NU_TILDE, LIFT, DRAG
History output group(s): ITER, RMS_RES, AERO_COEFF
Convergence field(s): RMS_DENSITY
Warning: No (valid) fields chosen for time convergence monitoring. Time convergence monitoring inactive.
Volume output fields: COORDINATES, SOLUTION, PRIMITIVE

------------------- Geometry Preprocessing ( Zone 0 ) -------------------
Two dimensional problem.
13937 grid points before partitioning.
22842 volume elements before partitioning.
2 surface markers.
192 boundary elements in index 0 (Marker = AIRFOIL).
40 boundary elements in index 1 (Marker = FARFIELD).
Executing the partitioning functions.
Building the graph adjacency structure.
Calling ParMETIS... graph partitioning complete (831 edge cuts).
Distributing ParMETIS coloring.
Rebalancing vertices.
Rebalancing volume element connectivity.
Rebalancing markers and surface elements.
14875 vertices including ghost points. 
23674 interior elements including halo cells. 
18780 triangles.
4894 quadrilaterals.
Establishing MPI communication patterns.
Setting point connectivity.
Renumbering points (Reverse Cuthill McKee Ordering).
Recomputing point connectivity.
Setting element connectivity.
Checking the numerical grid orientation.
All volume elements are correctly orientend.
All surface elements are correctly orientend.
Identifying edges and vertices.
Setting the control volume structure.
Area of the computational grid: 32209.9.
Searching for the closest normal neighbors to the surfaces.
Storing a mapping from global to local point index.
Compute the surface curvature.
Max K: 158.746. Mean K: 7.31241. Standard deviation K: 21.7133.
Checking for periodicity.
Computing mesh quality statistics for the dual control volumes.
+--------------------------------------------------------------+
|           Mesh Quality Metric|        Minimum|        Maximum|
+--------------------------------------------------------------+
|    Orthogonality Angle (deg.)|        75.2882|         89.999|
|     CV Face Area Aspect Ratio|         1.0015|        3358.35|
|           CV Sub-Volume Ratio|        1.00059|         1210.8|
+--------------------------------------------------------------+
Finding max control volume width.
Communicating number of neighbors.
Wetted area = 2.0234 m.
Area projection in the x-plane = 0.123921 m, y-plane = 0.995873 m.
Max. coordinate in the x-direction = 1 m, y-direction = 0.0635705 m.
Min. coordinate in the x-direction = 0 m, y-direction = -0.0593906 m.
Computing wall distances.

-------------------- Solver Preprocessing ( Zone 0 ) --------------------
WARNING: AoA in the solution file (2.78444 deg.) +
         AoA offset in mesh file (0 deg.) = 2.78444 deg.
WARNING: SU2 will use the dCD/dCL provided in the direct solution file: 0.0185315.
WARNING: SU2 will use the dCMz/dCL provided in the direct solution file: 0.0288065.
Viscous flow: Computing pressure using the ideal gas law
based on the free-stream temperature and a density computed
from the Reynolds number.
Force coefficients computed using free-stream values.

-- Models:
+------------------------------------------------------------------------------+
|          Viscosity Model|        Conductivity Model|              Fluid Model|
+------------------------------------------------------------------------------+
|               SUTHERLAND|          CONSTANT_PRANDTL|             STANDARD_AIR|
+------------------------------------------------------------------------------+
-- Fluid properties:
+------------------------------------------------------------------------------+
|                  Name|    Dim. value|    Ref. value|      Unit|Non-dim. value|
+------------------------------------------------------------------------------+
|        Ref. Viscosity|     1.716e-05|             1|   N.s/m^2|     1.716e-05|
|      Sutherland Temp.|        273.15|             1|         K|        273.15|
|     Sutherland Const.|         110.4|             1|         K|         110.4|
+------------------------------------------------------------------------------+
|        Prandtl (Lam.)|             -|             -|         -|          0.71|
|       Prandtl (Turb.)|             -|             -|         -|           0.9|
+------------------------------------------------------------------------------+
|          Gas Constant|       287.058|             1|  N.m/kg.K|       287.058|
|      Spec. Heat Ratio|             -|             -|         -|           1.4|
+------------------------------------------------------------------------------+
-- Initial and free-stream conditions:
+------------------------------------------------------------------------------+
|                  Name|    Dim. value|    Ref. value|      Unit|Non-dim. value|
+------------------------------------------------------------------------------+
|       Static Pressure|         38515|             1|        Pa|         38515|
|               Density|      0.465631|             1|    kg/m^3|      0.465631|
|           Temperature|        288.15|             1|         K|        288.15|
|          Total Energy|        237984|             1|   m^2/s^2|        237984|
|            Velocity-X|       249.483|             1|       m/s|       249.483|
|            Velocity-Y|       12.1339|             1|       m/s|       12.1339|
|    Velocity Magnitude|       249.778|             1|       m/s|       249.778|
+------------------------------------------------------------------------------+
|             Viscosity|    1.7893e-05|             1|   N.s/m^2|    1.7893e-05|
|          Conductivity|             -|             1|   W/m^2.K|             -|
|     Turb. Kin. Energy|       233.959|             1|   m^2/s^2|       233.959|
|     Spec. Dissipation|        608834|             1|       1/s|        608834|
+------------------------------------------------------------------------------+
|           Mach Number|             -|             -|         -|         0.734|
|       Reynolds Number|             -|             -|         -|       6.5e+06|
+------------------------------------------------------------------------------+
Initialize Jacobian structure (Navier-Stokes). MG level: 0.
Initialize Jacobian structure (SA model).

------------------- Numerics Preprocessing ( Zone 0 ) -------------------

----------------- Integration Preprocessing ( Zone 0 ) ------------------

------------------- Iteration Preprocessing ( Zone 0 ) ------------------
Euler/Navier-Stokes/RANS fluid iteration.

------------------------------ Begin Solver -----------------------------

Simulation Run using the Single-zone Driver
WARNING: SU2 was not compiled for an AVX-capable architecture. Performance could be better,
         see https://su2code.github.io/docs_v7/Build-SU2-Linux-MacOS/#compiler-optimizations
+----------------------------------------------------------------+
|  Inner_Iter|    rms[Rho]|     rms[nu]|          CL|          CD|
+----------------------------------------------------------------+
|           0|   -5.231686|   -6.393847|    0.824026|    0.012224|
|           1|   -5.279249|   -6.478164|    0.824045|    0.012223|
|           2|   -5.327483|   -6.576929|    0.824056|    0.012221|
|           3|   -5.359612|   -6.686317|    0.824061|    0.012218|
|           4|   -5.378399|   -6.803786|    0.824061|    0.012215|
|           5|   -5.388777|   -6.922257|    0.824060|    0.012213|
|           6|   -5.393636|   -7.022076|    0.824058|    0.012212|
|           7|   -5.394920|   -7.074664|    0.824058|    0.012213|
|           8|   -5.393950|   -7.076093|    0.824058|    0.012214|
|           9|   -5.391188|   -7.053207|    0.824058|    0.012215|
|          10|   -5.386504|   -7.027448|    0.824058|    0.012216|
|          11|   -5.379725|   -7.004336|    0.824056|    0.012218|
|          12|   -5.370934|   -6.981698|    0.824052|    0.012219|
|          13|   -5.360424|   -6.956683|    0.824047|    0.012220|
|          14|   -5.348524|   -6.928913|    0.824041|    0.012221|
|          15|   -5.335527|   -6.900364|    0.824034|    0.012221|
|          16|   -5.321717|   -6.873714|    0.824026|    0.012221|
|          17|   -5.307442|   -6.851024|    0.824017|    0.012221|
|          18|   -5.293164|   -6.833294|    0.824008|    0.012221|
|          19|   -5.279428|   -6.820549|    0.823999|    0.012220|
|          20|   -5.266778|   -6.812070|    0.823990|    0.012219|
|          21|   -5.255663|   -6.806637|    0.823981|    0.012218|
|          22|   -5.246348|   -6.802764|    0.823974|    0.012217|
|          23|   -5.238888|   -6.798990|    0.823967|    0.012216|
|          24|   -5.233142|   -6.794202|    0.823962|    0.012214|
|          25|   -5.228828|   -6.787887|    0.823958|    0.012214|
|          26|   -5.225596|   -6.780225|    0.823956|    0.012213|
|          27|   -5.223111|   -6.771961|    0.823955|    0.012213|
|          28|   -5.221096|   -6.764154|    0.823956|    0.012212|
|          29|   -5.219368|   -6.757900|    0.823958|    0.012213|
|          30|   -5.217825|   -6.754147|    0.823960|    0.012213|
|          31|   -5.216435|   -6.753591|    0.823964|    0.012214|
|          32|   -5.215204|   -6.756638|    0.823968|    0.012215|
|          33|   -5.214156|   -6.763394|    0.823972|    0.012216|
|          34|   -5.213312|   -6.773657|    0.823976|    0.012217|
|          35|   -5.212687|   -6.786903|    0.823979|    0.012218|
|          36|   -5.212282|   -6.802277|    0.823982|    0.012219|
|          37|   -5.212086|   -6.818615|    0.823984|    0.012221|
|          38|   -5.212085|   -6.834521|    0.823986|    0.012222|
|          39|   -5.212265|   -6.848544|    0.823986|    0.012223|
|          40|   -5.212617|   -6.859441|    0.823985|    0.012224|
|          41|   -5.213147|   -6.866439|    0.823983|    0.012224|
|          42|   -5.213872|   -6.869384|    0.823980|    0.012225|
|          43|   -5.214820|   -6.868683|    0.823977|    0.012225|
|          44|   -5.216025|   -6.865089|    0.823973|    0.012226|
|          45|   -5.217523|   -6.859430|    0.823968|    0.012226|
|          46|   -5.219344|   -6.852418|    0.823963|    0.012226|
|          47|   -5.221511|   -6.844556|    0.823957|    0.012226|
|          48|   -5.224036|   -6.836154|    0.823952|    0.012226|
|          49|   -5.226915|   -6.827387|    0.823946|    0.012226|
|          50|   -5.230129|   -6.818380|    0.823941|    0.012226|
|          51|   -5.233644|   -6.809268|    0.823936|    0.012226|
|          52|   -5.237417|   -6.800230|    0.823931|    0.012226|
|          53|   -5.241397|   -6.791492|    0.823927|    0.012226|
|          54|   -5.245531|   -6.783310|    0.823923|    0.012226|
|          55|   -5.249774|   -6.775941|    0.823919|    0.012226|
|          56|   -5.254091|   -6.769605|    0.823915|    0.012226|
|          57|   -5.258457|   -6.764469|    0.823912|    0.012226|
|          58|   -5.262862|   -6.760630|    0.823910|    0.012225|
|          59|   -5.267302|   -6.758108|    0.823907|    0.012225|
|          60|   -5.271778|   -6.756854|    0.823904|    0.012225|
|          61|   -5.276289|   -6.756756|    0.823902|    0.012225|
|          62|   -5.280831|   -6.757651|    0.823900|    0.012225|
|          63|   -5.285392|   -6.759347|    0.823898|    0.012224|
|          64|   -5.289957|   -6.761633|    0.823896|    0.012224|
|          65|   -5.294512|   -6.764298|    0.823894|    0.012223|
|          66|   -5.299042|   -6.767147|    0.823892|    0.012223|
|          67|   -5.303543|   -6.770011|    0.823890|    0.012222|
|          68|   -5.308016|   -6.772760|    0.823888|    0.012222|
|          69|   -5.312470|   -6.775301|    0.823886|    0.012221|
|          70|   -5.316917|   -6.777580|    0.823884|    0.012220|
|          71|   -5.321371|   -6.779579|    0.823882|    0.012219|
|          72|   -5.325839|   -6.781307|    0.823880|    0.012218|
|          73|   -5.330321|   -6.782794|    0.823879|    0.012218|
|          74|   -5.334805|   -6.784080|    0.823877|    0.012217|
|          75|   -5.339270|   -6.785213|    0.823876|    0.012216|
|          76|   -5.343684|   -6.786240|    0.823875|    0.012215|
|          77|   -5.348012|   -6.787206|    0.823874|    0.012214|
|          78|   -5.352218|   -6.788148|    0.823873|    0.012213|
|          79|   -5.356268|   -6.789099|    0.823873|    0.012212|
|          80|   -5.360134|   -6.790085|    0.823872|    0.012211|
|          81|   -5.363796|   -6.791125|    0.823872|    0.012210|
|          82|   -5.367241|   -6.792235|    0.823871|    0.012210|
|          83|   -5.370464|   -6.793422|    0.823871|    0.012209|
|          84|   -5.373461|   -6.794694|    0.823871|    0.012208|
|          85|   -5.376233|   -6.796054|    0.823871|    0.012207|
|          86|   -5.378781|   -6.797502|    0.823871|    0.012207|
|          87|   -5.381104|   -6.799040|    0.823871|    0.012206|
|          88|   -5.383200|   -6.800666|    0.823871|    0.012205|
|          89|   -5.385068|   -6.802382|    0.823871|    0.012205|
|          90|   -5.386705|   -6.804188|    0.823871|    0.012204|
|          91|   -5.388110|   -6.806088|    0.823871|    0.012203|
|          92|   -5.389283|   -6.808086|    0.823870|    0.012203|
|          93|   -5.390223|   -6.810189|    0.823870|    0.012202|
|          94|   -5.390933|   -6.812405|    0.823870|    0.012201|
|          95|   -5.391413|   -6.814744|    0.823869|    0.012201|
|          96|   -5.391664|   -6.817216|    0.823868|    0.012200|
|          97|   -5.391687|   -6.819833|    0.823868|    0.012199|
|          98|   -5.391482|   -6.822606|    0.823867|    0.012199|
|          99|   -5.391046|   -6.825548|    0.823867|    0.012198|
|         100|   -5.390379|   -6.828670|    0.823866|    0.012197|
|         101|   -5.389480|   -6.831983|    0.823865|    0.012206|
+-----------------------------------------------------------------------+
|Fixed CL Mode                           |Value                         |
+-----------------------------------------------------------------------+
|Current CL                              |0.823865                      |
|Target CL                               |0.824                         |
|Previous AOA                            |2.78444                       |
|Changed AoA by                          |0.000670732                   |
+-----------------------------------------------------------------------+
+----------------------------------------------------------------+
|  Inner_Iter|    rms[Rho]|     rms[nu]|          CL|          CD|
+----------------------------------------------------------------+
|         102|   -3.366834|   -6.823982|    0.823864|    0.012205|
|         103|   -3.751387|   -6.833394|    0.823864|    0.012205|
|         104|   -3.995731|   -6.838960|    0.823864|    0.012204|
|         105|   -4.074794|   -6.843977|    0.823863|    0.012203|
|         106|   -4.128630|   -6.848970|    0.823863|    0.012203|
|         107|   -4.198552|   -6.854066|    0.823863|    0.012202|
|         108|   -4.285128|   -6.859304|    0.823863|    0.012201|
|         109|   -4.375613|   -6.864701|    0.823863|    0.012201|
|         110|   -4.453340|   -6.870265|    0.823864|    0.012200|
|         111|   -4.509747|   -6.875989|    0.823864|    0.012200|
|         112|   -4.546465|   -6.881865|    0.823865|    0.012199|
|         113|   -4.567484|   -6.887892|    0.823866|    0.012199|
|         114|   -4.576792|   -6.894071|    0.823867|    0.012198|
|         115|   -4.580298|   -6.900399|    0.823868|    0.012198|
|         116|   -4.584600|   -6.906857|    0.823869|    0.012198|
|         117|   -4.594096|   -6.913422|    0.823871|    0.012197|
|         118|   -4.609791|   -6.920064|    0.823872|    0.012197|
|         119|   -4.629870|   -6.926759|    0.823874|    0.012197|
|         120|   -4.651176|   -6.933482|    0.823875|    0.012197|
|         121|   -4.671044|   -6.940207|    0.823877|    0.012197|
|         122|   -4.688591|   -6.946899|    0.823878|    0.012197|
|         123|   -4.704648|   -6.953517|    0.823880|    0.012197|
|         124|   -4.720610|   -6.960020|    0.823881|    0.012197|
|         125|   -4.737343|   -6.966363|    0.823883|    0.012197|
|         126|   -4.754813|   -6.972506|    0.823884|    0.012197|
|         127|   -4.772313|   -6.978412|    0.823885|    0.012197|
|         128|   -4.788890|   -6.984049|    0.823887|    0.012198|
|         129|   -4.803673|   -6.989392|    0.823888|    0.012198|
|         130|   -4.816058|   -6.994424|    0.823889|    0.012198|
|         131|   -4.825824|   -6.999134|    0.823890|    0.012198|
|         132|   -4.833213|   -7.003521|    0.823891|    0.012199|
|         133|   -4.838920|   -7.007588|    0.823892|    0.012199|
|         134|   -4.843943|   -7.011342|    0.823893|    0.012199|
|         135|   -4.849332|   -7.014794|    0.823894|    0.012199|
|         136|   -4.855953|   -7.017957|    0.823895|    0.012200|
|         137|   -4.864334|   -7.020844|    0.823896|    0.012200|
|         138|   -4.874611|   -7.023471|    0.823896|    0.012200|
|         139|   -4.886530|   -7.025856|    0.823897|    0.012200|
|         140|   -4.899489|   -7.028015|    0.823899|    0.012201|
|         141|   -4.912632|   -7.029967|    0.823900|    0.012201|
|         142|   -4.925014|   -7.031730|    0.823901|    0.012201|
|         143|   -4.935829|   -7.033325|    0.823902|    0.012202|
|         144|   -4.944646|   -7.034772|    0.823904|    0.012202|
|         145|   -4.951540|   -7.036094|    0.823906|    0.012202|
|         146|   -4.957051|   -7.037313|    0.823907|    0.012203|
|         147|   -4.961986|   -7.038453|    0.823910|    0.012203|
|         148|   -4.967176|   -7.039538|    0.823912|    0.012203|
|         149|   -4.973271|   -7.040588|    0.823914|    0.012204|
|         150|   -4.980639|   -7.041627|    0.823917|    0.012204|
|         151|   -4.989338|   -7.042681|    0.823920|    0.012205|
|         152|   -4.999163|   -7.043774|    0.823923|    0.012205|
|         153|   -5.009729|   -7.044934|    0.823926|    0.012206|
|         154|   -5.020569|   -7.046187|    0.823930|    0.012206|
|         155|   -5.031238|   -7.047560|    0.823934|    0.012207|
|         156|   -5.041405|   -7.049080|    0.823938|    0.012208|
|         157|   -5.050899|   -7.050771|    0.823942|    0.012208|
|         158|   -5.059717|   -7.052661|    0.823946|    0.012209|
|         159|   -5.067984|   -7.054772|    0.823951|    0.012210|
|         160|   -5.075900|   -7.057133|    0.823956|    0.012210|
|         161|   -5.083670|   -7.059764|    0.823961|    0.012211|
|         162|   -5.091463|   -7.062685|    0.823966|    0.012212|
|         163|   -5.099385|   -7.065918|    0.823971|    0.012213|
|         164|   -5.107477|   -7.069480|    0.823976|    0.012213|
|         165|   -5.115724|   -7.073385|    0.823981|    0.012214|
|         166|   -5.124080|   -7.077646|    0.823986|    0.012215|
|         167|   -5.132487|   -7.082271|    0.823992|    0.012216|
|         168|   -5.140884|   -7.087263|    0.823997|    0.012216|
|         169|   -5.149225|   -7.092624|    0.824002|    0.012217|
|         170|   -5.157474|   -7.098348|    0.824007|    0.012218|
|         171|   -5.165603|   -7.104428|    0.824012|    0.012218|
|         172|   -5.173590|   -7.110849|    0.824017|    0.012219|
|         173|   -5.181406|   -7.117595|    0.824021|    0.012219|
|         174|   -5.189020|   -7.124640|    0.824026|    0.012220|
|         175|   -5.196391|   -7.131950|    0.824030|    0.012220|
|         176|   -5.203474|   -7.139492|    0.824034|    0.012221|
|         177|   -5.210225|   -7.147235|    0.824037|    0.012221|
|         178|   -5.216599|   -7.155142|    0.824040|    0.012222|
|         179|   -5.222562|   -7.163176|    0.824043|    0.012222|
|         180|   -5.228086|   -7.171296|    0.824046|    0.012222|
|         181|   -5.233159|   -7.179463|    0.824048|    0.012223|
|         182|   -5.237779|   -7.187639|    0.824050|    0.012223|
|         183|   -5.241960|   -7.195792|    0.824051|    0.012223|
|         184|   -5.245725|   -7.203895|    0.824052|    0.012223|
|         185|   -5.249110|   -7.211930|    0.824053|    0.012223|
|         186|   -5.252159|   -7.219886|    0.824053|    0.012223|
|         187|   -5.254926|   -7.227763|    0.824053|    0.012223|
|         188|   -5.257470|   -7.235569|    0.824053|    0.012223|
|         189|   -5.259853|   -7.243321|    0.824052|    0.012223|
|         190|   -5.262140|   -7.251048|    0.824051|    0.012223|
|         191|   -5.264394|   -7.258781|    0.824050|    0.012223|
|         192|   -5.266678|   -7.266560|    0.824048|    0.012223|
|         193|   -5.269047|   -7.274430|    0.824046|    0.012223|
|         194|   -5.271553|   -7.282422|    0.824044|    0.012222|
|         195|   -5.274243|   -7.290598|    0.824042|    0.012222|
|         196|   -5.277152|   -7.299006|    0.824039|    0.012222|
|         197|   -5.280310|   -7.307688|    0.824036|    0.012222|
|         198|   -5.283738|   -7.316678|    0.824033|    0.012221|
|         199|   -5.287448|   -7.326009|    0.824030|    0.012221|
|         200|   -5.291444|   -7.335702|    0.824027|    0.012221|
|         201|   -5.295721|   -7.345775|    0.824024|    0.012218|
+-----------------------------------------------------------------------+
|Fixed CL Mode                           |Value                         |
+-----------------------------------------------------------------------+
|Current CL                              |0.824024                      |
|Target CL                               |0.824                         |
|Previous AOA                            |2.78511                       |
|Changed AoA by                          |-0.000136307                  |
+-----------------------------------------------------------------------+
+----------------------------------------------------------------+
|  Inner_Iter|    rms[Rho]|     rms[nu]|          CL|          CD|
+----------------------------------------------------------------+
|         202|   -4.058286|   -7.351032|    0.824021|    0.012218|
|         203|   -4.442466|   -7.364415|    0.824017|    0.012217|
|         204|   -4.687561|   -7.376302|    0.824014|    0.012217|
|         205|   -4.766373|   -7.388175|    0.824011|    0.012217|
|         206|   -4.817504|   -7.400245|    0.824007|    0.012216|
|         207|   -4.881870|   -7.412524|    0.824004|    0.012216|
|         208|   -4.958359|   -7.424974|    0.824000|    0.012215|
|         209|   -5.032483|   -7.437529|    0.823997|    0.012215|
|         210|   -5.088844|   -7.450109|    0.823994|    0.012214|
|         211|   -5.123523|   -7.462614|    0.823991|    0.012214|
|         212|   -5.142191|   -7.474941|    0.823988|    0.012213|
|         213|   -5.150868|   -7.486991|    0.823985|    0.012213|
|         214|   -5.153777|   -7.498674|    0.823982|    0.012212|
|         215|   -5.154910|   -7.509907|    0.823980|    0.012212|
|         216|   -5.157890|   -7.520610|    0.823977|    0.012211|
|         217|   -5.164784|   -7.530713|    0.823975|    0.012211|
|         218|   -5.175570|   -7.540165|    0.823973|    0.012210|
|         219|   -5.188582|   -7.548932|    0.823971|    0.012210|
|         220|   -5.201581|   -7.557008|    0.823970|    0.012209|
|         221|   -5.212931|   -7.564395|    0.823968|    0.012209|
|         222|   -5.222246|   -7.571079|    0.823967|    0.012208|
|         223|   -5.230167|   -7.577161|    0.823967|    0.012208|
|         224|   -5.237637|   -7.582716|    0.823966|    0.012207|
|         225|   -5.245316|   -7.587810|    0.823966|    0.012207|
|         226|   -5.253418|   -7.592506|    0.823966|    0.012206|
|         227|   -5.261830|   -7.596881|    0.823966|    0.012206|
|         228|   -5.270303|   -7.601013|    0.823966|    0.012206|
|         229|   -5.278568|   -7.604970|    0.823967|    0.012205|
|         230|   -5.286390|   -7.608817|    0.823968|    0.012205|
|         231|   -5.293609|   -7.612603|    0.823969|    0.012205|
|         232|   -5.300185|   -7.616367|    0.823970|    0.012204|
|         233|   -5.306237|   -7.620132|    0.823972|    0.012204|
|         234|   -5.312028|   -7.623902|    0.823974|    0.012204|
|         235|   -5.317900|   -7.627668|    0.823976|    0.012204|
|         236|   -5.324182|   -7.631402|    0.823978|    0.012204|
|         237|   -5.331116|   -7.635058|    0.823980|    0.012203|
|         238|   -5.338806|   -7.638580|    0.823982|    0.012203|
|         239|   -5.347203|   -7.641896|    0.823985|    0.012203|
|         240|   -5.356117|   -7.644928|    0.823987|    0.012203|
|         241|   -5.365249|   -7.647593|    0.823990|    0.012203|
|         242|   -5.374257|   -7.649811|    0.823992|    0.012203|
|         243|   -5.382830|   -7.651511|    0.823995|    0.012203|
|         244|   -5.390762|   -7.652636|    0.823997|    0.012203|
|         245|   -5.397994|   -7.653150|    0.824000|    0.012203|
|         246|   -5.404612|   -7.653039|    0.824002|    0.012203|
|         247|   -5.410806|   -7.652319|    0.824005|    0.012202|
|         248|   -5.416796|   -7.651031|    0.824007|    0.012202|
|         249|   -5.422769|   -7.649250|    0.824009|    0.012202|
|         250|   -5.428832|   -7.647050|    0.824011|    0.012202|
|         251|   -5.434998|   -7.644541|    0.824013|    0.012202|
|         252|   -5.441196|   -7.641840|    0.824015|    0.012202|
|         253|   -5.447301|   -7.639072|    0.824017|    0.012202|
|         254|   -5.453174|   -7.636363|    0.824019|    0.012202|
|         255|   -5.458696|   -7.633835|    0.824021|    0.012202|
|         256|   -5.463793|   -7.631603|    0.824022|    0.012202|
|         257|   -5.468449|   -7.629772|    0.824023|    0.012202|
|         258|   -5.472701|   -7.628434|    0.824025|    0.012202|
|         259|   -5.476624|   -7.627666|    0.824026|    0.012202|
|         260|   -5.480310|   -7.627533|    0.824027|    0.012202|
|         261|   -5.483845|   -7.628086|    0.824027|    0.012202|
|         262|   -5.487305|   -7.629359|    0.824028|    0.012202|
|         263|   -5.490743|   -7.631376|    0.824029|    0.012202|
|         264|   -5.494195|   -7.634148|    0.824029|    0.012202|
|         265|   -5.497673|   -7.637671|    0.824030|    0.012202|
|         266|   -5.501181|   -7.641933|    0.824030|    0.012202|
|         267|   -5.504712|   -7.646912|    0.824031|    0.012202|
|         268|   -5.508254|   -7.652573|    0.824031|    0.012202|
|         269|   -5.511795|   -7.658876|    0.824031|    0.012202|
|         270|   -5.515311|   -7.665773|    0.824031|    0.012202|
|         271|   -5.518786|   -7.673210|    0.824032|    0.012202|
|         272|   -5.522199|   -7.681128|    0.824032|    0.012203|
|         273|   -5.525522|   -7.689468|    0.824032|    0.012203|
|         274|   -5.528726|   -7.698168|    0.824033|    0.012203|
|         275|   -5.531775|   -7.707166|    0.824033|    0.012203|
|         276|   -5.534634|   -7.716404|    0.824033|    0.012203|
|         277|   -5.537268|   -7.725827|    0.824034|    0.012203|
|         278|   -5.539640|   -7.735386|    0.824034|    0.012203|
|         279|   -5.541719|   -7.745040|    0.824035|    0.012204|
|         280|   -5.543477|   -7.754757|    0.824036|    0.012204|
|         281|   -5.544891|   -7.764515|    0.824037|    0.012204|
|         282|   -5.545946|   -7.774298|    0.824037|    0.012204|
|         283|   -5.546630|   -7.784101|    0.824038|    0.012204|
|         284|   -5.546943|   -7.793923|    0.824039|    0.012205|
|         285|   -5.546889|   -7.803767|    0.824040|    0.012205|
|         286|   -5.546480|   -7.813637|    0.824041|    0.012205|
|         287|   -5.545734|   -7.823535|    0.824043|    0.012206|
|         288|   -5.544678|   -7.833458|    0.824044|    0.012206|
|         289|   -5.543342|   -7.843394|    0.824045|    0.012206|
|         290|   -5.541762|   -7.853321|    0.824047|    0.012207|
|         291|   -5.539978|   -7.863205|    0.824048|    0.012207|
|         292|   -5.538030|   -7.872999|    0.824049|    0.012207|
|         293|   -5.535964|   -7.882643|    0.824051|    0.012208|
|         294|   -5.533823|   -7.892063|    0.824052|    0.012208|
|         295|   -5.531649|   -7.901180|    0.824054|    0.012208|
|         296|   -5.529484|   -7.909903|    0.824055|    0.012208|
|         297|   -5.527367|   -7.918145|    0.824057|    0.012209|
|         298|   -5.525333|   -7.925820|    0.824058|    0.012209|
|         299|   -5.523417|   -7.932856|    0.824060|    0.012209|
|         300|   -5.521646|   -7.939193|    0.824061|    0.012210|
|         301|   -5.520046|   -7.944783|    0.824062|    0.012206|
+-----------------------------------------------------------------------+
|Fixed CL Mode                           |Value                         |
+-----------------------------------------------------------------------+
|Current CL                              |0.824062                      |
|Target CL                               |0.824                         |
|Previous AOA                            |2.78498                       |
|Changed AoA by                          |-0.00030504                   |
+-----------------------------------------------------------------------+
+----------------------------------------------------------------+
|  Inner_Iter|    rms[Rho]|     rms[nu]|          CL|          CD|
+----------------------------------------------------------------+
|         302|   -3.708942|   -7.719056|    0.824064|    0.012206|
|         303|   -4.093407|   -7.810319|    0.824065|    0.012206|
|         304|   -4.338350|   -7.846937|    0.824067|    0.012206|
|         305|   -4.418311|   -7.869474|    0.824068|    0.012207|
|         306|   -4.472558|   -7.886261|    0.824069|    0.012207|
|         307|   -4.542442|   -7.899387|    0.824070|    0.012207|
|         308|   -4.628422|   -7.909555|    0.824072|    0.012207|
|         309|   -4.717462|   -7.917274|    0.824073|    0.012208|
|         310|   -4.792828|   -7.922944|    0.824074|    0.012208|
|         311|   -4.846476|   -7.926781|    0.824075|    0.012208|
|         312|   -4.880747|   -7.929068|    0.824076|    0.012208|
|         313|   -4.900077|   -7.930389|    0.824077|    0.012208|
|         314|   -4.908560|   -7.931450|    0.824078|    0.012208|
|         315|   -4.911862|   -7.932768|    0.824079|    0.012208|
|         316|   -4.916185|   -7.934546|    0.824080|    0.012208|
|         317|   -4.925628|   -7.936764|    0.824081|    0.012208|
|         318|   -4.941073|   -7.939369|    0.824082|    0.012208|
|         319|   -4.960735|   -7.942391|    0.824083|    0.012208|
|         320|   -4.981581|   -7.945903|    0.824084|    0.012208|
|         321|   -5.001083|   -7.949949|    0.824085|    0.012208|
|         322|   -5.018428|   -7.954475|    0.824086|    0.012208|
|         323|   -5.034426|   -7.959354|    0.824087|    0.012208|
|         324|   -5.050407|   -7.964403|    0.824087|    0.012208|
|         325|   -5.067192|   -7.969452|    0.824088|    0.012208|
|         326|   -5.084741|   -7.974357|    0.824089|    0.012208|
|         327|   -5.102374|   -7.979021|    0.824090|    0.012208|
|         328|   -5.119169|   -7.983361|    0.824091|    0.012208|
|         329|   -5.134279|   -7.987384|    0.824091|    0.012208|
|         330|   -5.147108|   -7.991083|    0.824092|    0.012208|
|         331|   -5.157423|   -7.994466|    0.824093|    0.012208|
|         332|   -5.165433|   -7.997536|    0.824094|    0.012208|
|         333|   -5.171791|   -8.000296|    0.824094|    0.012207|
|         334|   -5.177448|   -8.002736|    0.824095|    0.012207|
|         335|   -5.183414|   -8.004815|    0.824096|    0.012207|
|         336|   -5.190532|   -8.006484|    0.824096|    0.012207|
|         337|   -5.199323|   -8.007692|    0.824097|    0.012207|
|         338|   -5.209927|   -8.008384|    0.824097|    0.012207|
|         339|   -5.222104|   -8.008516|    0.824098|    0.012207|
|         340|   -5.235274|   -8.008050|    0.824098|    0.012206|
|         341|   -5.248609|   -8.006965|    0.824099|    0.012206|
|         342|   -5.261191|   -8.005254|    0.824099|    0.012206|
|         343|   -5.272235|   -8.002924|    0.824100|    0.012206|
|         344|   -5.281319|   -8.000001|    0.824100|    0.012206|
|         345|   -5.288512|   -7.996522|    0.824100|    0.012206|
|         346|   -5.294331|   -7.992538|    0.824100|    0.012206|
|         347|   -5.299558|   -7.988080|    0.824101|    0.012205|
|         348|   -5.304999|   -7.983187|    0.824101|    0.012205|
|         349|   -5.311286|   -7.977888|    0.824101|    0.012205|
|         350|   -5.318771|   -7.972220|    0.824101|    0.012205|
|         351|   -5.327504|   -7.966213|    0.824101|    0.012205|
|         352|   -5.337271|   -7.959914|    0.824100|    0.012205|
|         353|   -5.347682|   -7.953374|    0.824100|    0.012205|
|         354|   -5.358267|   -7.946634|    0.824100|    0.012204|
|         355|   -5.368582|   -7.939751|    0.824100|    0.012204|
|         356|   -5.378297|   -7.932774|    0.824099|    0.012204|
|         357|   -5.387248|   -7.925769|    0.824099|    0.012204|
|         358|   -5.395435|   -7.918806|    0.824098|    0.012204|
|         359|   -5.402994|   -7.911962|    0.824097|    0.012204|
|         360|   -5.410126|   -7.905306|    0.824097|    0.012204|
|         361|   -5.417045|   -7.898907|    0.824096|    0.012203|
|         362|   -5.423925|   -7.892827|    0.824095|    0.012203|
|         363|   -5.430878|   -7.887127|    0.824094|    0.012203|
|         364|   -5.437955|   -7.881855|    0.824093|    0.012203|
|         365|   -5.445157|   -7.877052|    0.824092|    0.012203|
|         366|   -5.452455|   -7.872756|    0.824091|    0.012203|
|         367|   -5.459808|   -7.868993|    0.824090|    0.012203|
|         368|   -5.467180|   -7.865778|    0.824089|    0.012203|
|         369|   -5.474548|   -7.863120|    0.824088|    0.012202|
|         370|   -5.481901|   -7.861013|    0.824087|    0.012202|
|         371|   -5.489239|   -7.859446|    0.824086|    0.012202|
|         372|   -5.496566|   -7.858393|    0.824085|    0.012202|
|         373|   -5.503882|   -7.857813|    0.824084|    0.012202|
|         374|   -5.511187|   -7.857659|    0.824084|    0.012202|
|         375|   -5.518471|   -7.857871|    0.824083|    0.012202|
|         376|   -5.525720|   -7.858375|    0.824082|    0.012202|
|         377|   -5.532918|   -7.859089|    0.824082|    0.012202|
|         378|   -5.540049|   -7.859924|    0.824081|    0.012202|
|         379|   -5.547098|   -7.860784|    0.824081|    0.012202|
|         380|   -5.554055|   -7.861573|    0.824081|    0.012202|
|         381|   -5.560914|   -7.862198|    0.824081|    0.012202|
|         382|   -5.567673|   -7.862571|    0.824081|    0.012202|
|         383|   -5.574336|   -7.862613|    0.824082|    0.012202|
|         384|   -5.580910|   -7.862250|    0.824082|    0.012202|
|         385|   -5.587406|   -7.861461|    0.824083|    0.012202|
|         386|   -5.593835|   -7.860238|    0.824083|    0.012202|
|         387|   -5.600211|   -7.858588|    0.824084|    0.012202|
|         388|   -5.606549|   -7.856542|    0.824085|    0.012202|
|         389|   -5.612864|   -7.854150|    0.824087|    0.012202|
|         390|   -5.619171|   -7.851479|    0.824088|    0.012202|
|         391|   -5.625483|   -7.848609|    0.824089|    0.012202|
|         392|   -5.631813|   -7.845627|    0.824091|    0.012202|
|         393|   -5.638169|   -7.842625|    0.824092|    0.012202|
|         394|   -5.644555|   -7.839692|    0.824094|    0.012202|
|         395|   -5.650974|   -7.836912|    0.824096|    0.012202|
|         396|   -5.657420|   -7.834361|    0.824098|    0.012202|
|         397|   -5.663883|   -7.832104|    0.824100|    0.012202|
|         398|   -5.670349|   -7.830190|    0.824101|    0.012203|
|         399|   -5.676796|   -7.828658|    0.824103|    0.012203|
|         400|   -5.683200|   -7.827529|    0.824106|    0.012203|
|         401|   -5.689530|   -7.826810|    0.824108|    0.012195|
+-----------------------------------------------------------------------+
|Fixed CL Mode                           |Value                         |
+-----------------------------------------------------------------------+
|Current CL                              |0.824108                      |
|Target CL                               |0.824                         |
|Previous AOA                            |2.78467                       |
|Changed AoA by                          |-0.000527553                  |
+-----------------------------------------------------------------------+
+----------------------------------------------------------------+
|  Inner_Iter|    rms[Rho]|     rms[nu]|          CL|          CD|
+----------------------------------------------------------------+
|         402|   -3.471075|   -7.513217|    0.824110|    0.012195|
|         403|   -3.855102|   -7.620206|    0.824112|    0.012196|
|         404|   -4.098264|   -7.664050|    0.824114|    0.012196|
|         405|   -4.177127|   -7.691668|    0.824116|    0.012196|
|         406|   -4.231255|   -7.713299|    0.824118|    0.012196|
|         407|   -4.301513|   -7.731408|    0.824120|    0.012196|
|         408|   -4.388518|   -7.746594|    0.824122|    0.012196|
|         409|   -4.479759|   -7.759155|    0.824124|    0.012196|
|         410|   -4.558792|   -7.769244|    0.824126|    0.012196|
|         411|   -4.616970|   -7.776750|    0.824128|    0.012197|
|         412|   -4.655565|   -7.781717|    0.824130|    0.012197|
|         413|   -4.678165|   -7.784704|    0.824132|    0.012197|
|         414|   -4.688507|   -7.786586|    0.824134|    0.012197|
|         415|   -4.692551|   -7.788027|    0.824135|    0.012197|
|         416|   -4.697153|   -7.789273|    0.824137|    0.012197|
|         417|   -4.706959|   -7.790272|    0.824139|    0.012197|
|         418|   -4.723112|   -7.790989|    0.824140|    0.012197|
|         419|   -4.743828|   -7.791532|    0.824141|    0.012198|
|         420|   -4.765916|   -7.792081|    0.824143|    0.012198|
|         421|   -4.786650|   -7.792795|    0.824144|    0.012198|
|         422|   -4.805123|   -7.793686|    0.824145|    0.012198|
|         423|   -4.822184|   -7.794647|    0.824146|    0.012198|
|         424|   -4.839264|   -7.795487|    0.824147|    0.012198|
|         425|   -4.857232|   -7.796033|    0.824148|    0.012198|
|         426|   -4.876003|   -7.796149|    0.824149|    0.012198|
|         427|   -4.894777|   -7.795771|    0.824149|    0.012198|
|         428|   -4.912488|   -7.794921|    0.824150|    0.012199|
|         429|   -4.928177|   -7.793641|    0.824150|    0.012199|
|         430|   -4.941191|   -7.791997|    0.824151|    0.012199|
|         431|   -4.951315|   -7.790065|    0.824151|    0.012199|
|         432|   -4.958850|   -7.787925|    0.824151|    0.012199|
|         433|   -4.964590|   -7.785636|    0.824151|    0.012199|
|         434|   -4.969639|   -7.783249|    0.824151|    0.012199|
|         435|   -4.975144|   -7.780776|    0.824151|    0.012199|
|         436|   -4.982031|   -7.778233|    0.824151|    0.012199|
|         437|   -4.990860|   -7.775612|    0.824151|    0.012199|
|         438|   -5.001766|   -7.772886|    0.824150|    0.012199|
|         439|   -5.014464|   -7.770038|    0.824150|    0.012199|
|         440|   -5.028290|   -7.767055|    0.824149|    0.012199|
|         441|   -5.042304|   -7.763940|    0.824149|    0.012199|
|         442|   -5.055455|   -7.760688|    0.824148|    0.012199|
|         443|   -5.066852|   -7.757315|    0.824147|    0.012199|
|         444|   -5.076022|   -7.753852|    0.824146|    0.012199|
|         445|   -5.083067|   -7.750326|    0.824145|    0.012199|
|         446|   -5.088616|   -7.746766|    0.824144|    0.012199|
|         447|   -5.093600|   -7.743200|    0.824142|    0.012199|
|         448|   -5.098968|   -7.739645|    0.824141|    0.012199|
|         449|   -5.105466|   -7.736110|    0.824140|    0.012199|
|         450|   -5.113522|   -7.732597|    0.824138|    0.012199|
|         451|   -5.123224|   -7.729110|    0.824136|    0.012199|
|         452|   -5.134366|   -7.725652|    0.824134|    0.012199|
|         453|   -5.146538|   -7.722239|    0.824132|    0.012199|
|         454|   -5.159231|   -7.718880|    0.824130|    0.012199|
|         455|   -5.171953|   -7.715549|    0.824128|    0.012199|
|         456|   -5.184327|   -7.712248|    0.824126|    0.012199|
|         457|   -5.196155|   -7.708994|    0.824123|    0.012199|
|         458|   -5.207431|   -7.705808|    0.824120|    0.012199|
|         459|   -5.218308|   -7.702729|    0.824118|    0.012198|
|         460|   -5.229028|   -7.699794|    0.824115|    0.012198|
|         461|   -5.239856|   -7.697048|    0.824112|    0.012198|
|         462|   -5.251019|   -7.694540|    0.824108|    0.012198|
|         463|   -5.262677|   -7.692325|    0.824105|    0.012198|
|         464|   -5.274911|   -7.690457|    0.824102|    0.012198|
|         465|   -5.287739|   -7.688991|    0.824098|    0.012198|
|         466|   -5.301137|   -7.687975|    0.824095|    0.012198|
|         467|   -5.315056|   -7.687454|    0.824091|    0.012198|
|         468|   -5.329450|   -7.687462|    0.824088|    0.012197|
|         469|   -5.344280|   -7.688029|    0.824084|    0.012197|
|         470|   -5.359521|   -7.689170|    0.824081|    0.012197|
|         471|   -5.375156|   -7.690885|    0.824078|    0.012197|
|         472|   -5.391166|   -7.693153|    0.824074|    0.012197|
|         473|   -5.407522|   -7.695932|    0.824071|    0.012197|
|         474|   -5.424173|   -7.699154|    0.824068|    0.012197|
|         475|   -5.441045|   -7.702728|    0.824065|    0.012197|
|         476|   -5.458030|   -7.706537|    0.824063|    0.012197|
|         477|   -5.474998|   -7.710440|    0.824060|    0.012197|
|         478|   -5.491790|   -7.714276|    0.824058|    0.012196|
|         479|   -5.508231|   -7.717871|    0.824056|    0.012196|
|         480|   -5.524137|   -7.721043|    0.824054|    0.012196|
|         481|   -5.539321|   -7.723615|    0.824053|    0.012196|
|         482|   -5.553604|   -7.725429|    0.824051|    0.012196|
|         483|   -5.566825|   -7.726359|    0.824051|    0.012196|
|         484|   -5.578851|   -7.726321|    0.824050|    0.012196|
|         485|   -5.589586|   -7.725283|    0.824050|    0.012196|
|         486|   -5.598977|   -7.723269|    0.824050|    0.012196|
|         487|   -5.607019|   -7.720357|    0.824050|    0.012196|
|         488|   -5.613754|   -7.716671|    0.824051|    0.012196|
|         489|   -5.619267|   -7.712376|    0.824051|    0.012196|
|         490|   -5.623681|   -7.707658|    0.824053|    0.012196|
|         491|   -5.627142|   -7.702714|    0.824054|    0.012196|
|         492|   -5.629813|   -7.697743|    0.824056|    0.012196|
|         493|   -5.631862|   -7.692929|    0.824057|    0.012196|
|         494|   -5.633451|   -7.688443|    0.824060|    0.012196|
|         495|   -5.634731|   -7.684429|    0.824062|    0.012196|
|         496|   -5.635838|   -7.681009|    0.824064|    0.012196|
|         497|   -5.636888|   -7.678276|    0.824067|    0.012196|
|         498|   -5.637977|   -7.676295|    0.824070|    0.012196|
|         499|   -5.639186|   -7.675105|    0.824073|    0.012197|
|         500|   -5.640572|   -7.674716|    0.824076|    0.012197|
|         501|   -5.642183|   -7.675111|    0.824079|    0.012191|
+-----------------------------------------------------------------------+
|Fixed CL Mode                           |Value                         |
+-----------------------------------------------------------------------+
|Current CL                              |0.824079                      |
|Target CL                               |0.824                         |
|Previous AOA                            |2.78414                       |
|Changed AoA by                          |-0.000378309                  |
+-----------------------------------------------------------------------+
+----------------------------------------------------------------+
|  Inner_Iter|    rms[Rho]|     rms[nu]|          CL|          CD|
+----------------------------------------------------------------+
|         502|   -3.615454|   -7.543215|    0.824082|    0.012191|
|         503|   -3.998733|   -7.601325|    0.824085|    0.012191|
|         504|   -4.239499|   -7.622902|    0.824089|    0.012191|
|         505|   -4.316958|   -7.636700|    0.824092|    0.012191|
|         506|   -4.370572|   -7.647884|    0.824095|    0.012191|
|         507|   -4.440366|   -7.657589|    0.824099|    0.012191|
|         508|   -4.526809|   -7.666072|    0.824102|    0.012191|
|         509|   -4.617718|   -7.673408|    0.824105|    0.012192|
|         510|   -4.697277|   -7.679570|    0.824109|    0.012192|
|         511|   -4.757121|   -7.684420|    0.824112|    0.012192|
|         512|   -4.798110|   -7.687865|    0.824115|    0.012192|
|         513|   -4.823133|   -7.689985|    0.824118|    0.012192|
|         514|   -4.835344|   -7.690985|    0.824121|    0.012192|
|         515|   -4.840495|   -7.691041|    0.824123|    0.012192|
|         516|   -4.845605|   -7.690222|    0.824126|    0.012192|
|         517|   -4.855600|   -7.688556|    0.824129|    0.012192|
|         518|   -4.871850|   -7.686104|    0.824131|    0.012192|
|         519|   -4.892720|   -7.683009|    0.824133|    0.012192|
|         520|   -4.915123|   -7.679456|    0.824135|    0.012192|
|         521|   -4.936398|   -7.675621|    0.824137|    0.012192|
|         522|   -4.955663|   -7.671639|    0.824139|    0.012192|
|         523|   -4.973751|   -7.667595|    0.824141|    0.012192|
|         524|   -4.992039|   -7.663553|    0.824142|    0.012192|
|         525|   -5.011302|   -7.659569|    0.824143|    0.012192|
|         526|   -5.031320|   -7.655701|    0.824144|    0.012192|
|         527|   -5.051127|   -7.652018|    0.824145|    0.012192|
|         528|   -5.069504|   -7.648593|    0.824146|    0.012192|
|         529|   -5.085393|   -7.645484|    0.824146|    0.012192|
|         530|   -5.098138|   -7.642740|    0.824147|    0.012192|
|         531|   -5.107619|   -7.640399|    0.824147|    0.012192|
|         532|   -5.114291|   -7.638478|    0.824147|    0.012192|
|         533|   -5.119112|   -7.636983|    0.824147|    0.012192|
|         534|   -5.123310|   -7.635898|    0.824146|    0.012192|
|         535|   -5.128089|   -7.635195|    0.824146|    0.012192|
|         536|   -5.134371|   -7.634827|    0.824146|    0.012192|
|         537|   -5.142666|   -7.634743|    0.824145|    0.012192|
|         538|   -5.153025|   -7.634887|    0.824144|    0.012191|
|         539|   -5.165071|   -7.635200|    0.824143|    0.012191|
|         540|   -5.178047|   -7.635625|    0.824142|    0.012191|
|         541|   -5.190938|   -7.636113|    0.824141|    0.012191|
|         542|   -5.202659|   -7.636619|    0.824140|    0.012191|
|         543|   -5.212339|   -7.637108|    0.824138|    0.012191|
|         544|   -5.219580|   -7.637554|    0.824137|    0.012191|
|         545|   -5.224587|   -7.637943|    0.824136|    0.012191|
|         546|   -5.228082|   -7.638267|    0.824134|    0.012191|
|         547|   -5.231043|   -7.638521|    0.824132|    0.012191|
|         548|   -5.234427|   -7.638706|    0.824131|    0.012191|
|         549|   -5.238951|   -7.638821|    0.824129|    0.012191|
|         550|   -5.245002|   -7.638869|    0.824127|    0.012191|
|         551|   -5.252631|   -7.638850|    0.824125|    0.012191|
|         552|   -5.261614|   -7.638766|    0.824123|    0.012191|
|         553|   -5.271546|   -7.638626|    0.824121|    0.012191|
|         554|   -5.281953|   -7.638424|    0.824119|    0.012191|
|         555|   -5.292395|   -7.638153|    0.824117|    0.012191|
|         556|   -5.302555|   -7.637801|    0.824115|    0.012191|
|         557|   -5.312290|   -7.637359|    0.824113|    0.012191|
|         558|   -5.321626|   -7.636818|    0.824110|    0.012192|
|         559|   -5.330727|   -7.636176|    0.824108|    0.012192|
|         560|   -5.339825|   -7.635431|    0.824105|    0.012192|
|         561|   -5.349159|   -7.634585|    0.824103|    0.012192|
|         562|   -5.358931|   -7.633647|    0.824100|    0.012192|
|         563|   -5.369278|   -7.632630|    0.824098|    0.012192|
|         564|   -5.380268|   -7.631556|    0.824095|    0.012192|
|         565|   -5.391918|   -7.630451|    0.824092|    0.012192|
|         566|   -5.404205|   -7.629348|    0.824089|    0.012192|
|         567|   -5.417095|   -7.628288|    0.824087|    0.012192|
|         568|   -5.430551|   -7.627310|    0.824084|    0.012192|
|         569|   -5.444548|   -7.626461|    0.824081|    0.012192|
|         570|   -5.459073|   -7.625785|    0.824078|    0.012193|
|         571|   -5.474119|   -7.625322|    0.824076|    0.012193|
|         572|   -5.489678|   -7.625105|    0.824073|    0.012193|
|         573|   -5.505734|   -7.625162|    0.824070|    0.012193|
|         574|   -5.522250|   -7.625509|    0.824068|    0.012193|
|         575|   -5.539167|   -7.626151|    0.824065|    0.012193|
|         576|   -5.556396|   -7.627081|    0.824063|    0.012193|
|         577|   -5.573821|   -7.628279|    0.824061|    0.012193|
|         578|   -5.591296|   -7.629711|    0.824059|    0.012194|
|         579|   -5.608652|   -7.631328|    0.824057|    0.012194|
|         580|   -5.625697|   -7.633073|    0.824055|    0.012194|
|         581|   -5.642226|   -7.634876|    0.824054|    0.012194|
|         582|   -5.658022|   -7.636663|    0.824052|    0.012194|
|         583|   -5.672874|   -7.638353|    0.824051|    0.012194|
|         584|   -5.686580|   -7.639870|    0.824050|    0.012194|
|         585|   -5.698964|   -7.641140|    0.824049|    0.012194|
|         586|   -5.709888|   -7.642100|    0.824049|    0.012195|
|         587|   -5.719262|   -7.642702|    0.824048|    0.012195|
|         588|   -5.727053|   -7.642917|    0.824048|    0.012195|
|         589|   -5.733285|   -7.642732|    0.824048|    0.012195|
|         590|   -5.738038|   -7.642161|    0.824049|    0.012195|
|         591|   -5.741438|   -7.641234|    0.824049|    0.012195|
|         592|   -5.743645|   -7.640003|    0.824050|    0.012195|
|         593|   -5.744842|   -7.638532|    0.824051|    0.012195|
|         594|   -5.745219|   -7.636900|    0.824051|    0.012196|
|         595|   -5.744963|   -7.635189|    0.824053|    0.012196|
|         596|   -5.744251|   -7.633485|    0.824054|    0.012196|
|         597|   -5.743244|   -7.631868|    0.824055|    0.012196|
|         598|   -5.742083|   -7.630415|    0.824057|    0.012196|
|         599|   -5.740887|   -7.629190|    0.824059|    0.012196|
|         600|   -5.739759|   -7.628244|    0.824060|    0.012196|
|         601|   -5.738780|   -7.627613|    0.824062|    0.012192|
+-----------------------------------------------------------------------+
|Fixed CL Mode                           |Value                         |
+-----------------------------------------------------------------------+
|Current CL                              |0.824062                      |
|Target CL                               |0.824                         |
|Previous AOA                            |2.78377                       |
|Changed AoA by                          |-0.000301643                  |
+-----------------------------------------------------------------------+
+----------------------------------------------------------------+
|  Inner_Iter|    rms[Rho]|     rms[nu]|          CL|          CD|
+----------------------------------------------------------------+
|         602|   -3.713827|   -7.549501|    0.824064|    0.012192|
|         603|   -4.097104|   -7.585047|    0.824066|    0.012192|
|         604|   -4.337485|   -7.596836|    0.824068|    0.012192|
|         605|   -4.414418|   -7.603888|    0.824070|    0.012192|
|         606|   -4.467675|   -7.609393|    0.824073|    0.012192|
|         607|   -4.537192|   -7.614075|    0.824075|    0.012192|
|         608|   -4.623410|   -7.618137|    0.824077|    0.012192|
|         609|   -4.714240|   -7.621673|    0.824079|    0.012192|
|         610|   -4.794033|   -7.624705|    0.824081|    0.012192|
|         611|   -4.854454|   -7.627186|    0.824083|    0.012193|
|         612|   -4.896199|   -7.629076|    0.824086|    0.012193|
|         613|   -4.921938|   -7.630411|    0.824088|    0.012193|
|         614|   -4.934663|   -7.631269|    0.824090|    0.012193|
|         615|   -4.940085|   -7.631710|    0.824092|    0.012193|
|         616|   -4.945285|   -7.631738|    0.824093|    0.012193|
|         617|   -4.955276|   -7.631340|    0.824095|    0.012193|
|         618|   -4.971486|   -7.630519|    0.824097|    0.012193|
|         619|   -4.992312|   -7.629326|    0.824098|    0.012193|
|         620|   -5.014683|   -7.627837|    0.824100|    0.012193|
|         621|   -5.035949|   -7.626131|    0.824101|    0.012193|
|         622|   -5.055234|   -7.624272|    0.824102|    0.012193|
|         623|   -5.073374|   -7.622309|    0.824104|    0.012193|
|         624|   -5.091737|   -7.620281|    0.824105|    0.012193|
|         625|   -5.111081|   -7.618230|    0.824106|    0.012193|
|         626|   -5.131164|   -7.616199|    0.824106|    0.012193|
|         627|   -5.151000|   -7.614242|    0.824107|    0.012193|
|         628|   -5.169356|   -7.612414|    0.824107|    0.012193|
|         629|   -5.185177|   -7.610764|    0.824108|    0.012193|
|         630|   -5.197825|   -7.609334|    0.824108|    0.012193|
|         631|   -5.207211|   -7.608161|    0.824108|    0.012193|
|         632|   -5.213823|   -7.607267|    0.824108|    0.012193|
|         633|   -5.218641|   -7.606663|    0.824108|    0.012193|
|         634|   -5.222908|   -7.606351|    0.824108|    0.012192|
|         635|   -5.227831|   -7.606315|    0.824108|    0.012192|
|         636|   -5.234331|   -7.606532|    0.824108|    0.012192|
|         637|   -5.242908|   -7.606974|    0.824107|    0.012192|
|         638|   -5.253611|   -7.607603|    0.824107|    0.012192|
|         639|   -5.266051|   -7.608380|    0.824106|    0.012192|
|         640|   -5.279456|   -7.609267|    0.824106|    0.012192|
|         641|   -5.292785|   -7.610226|    0.824105|    0.012192|
|         642|   -5.304926|   -7.611222|    0.824104|    0.012192|
|         643|   -5.314972|   -7.612225|    0.824104|    0.012192|
|         644|   -5.322501|   -7.613211|    0.824103|    0.012192|
|         645|   -5.327711|   -7.614160|    0.824102|    0.012191|
|         646|   -5.331331|   -7.615061|    0.824101|    0.012191|
|         647|   -5.334365|   -7.615902|    0.824100|    0.012191|
|         648|   -5.337790|   -7.616676|    0.824099|    0.012191|
|         649|   -5.342344|   -7.617381|    0.824098|    0.012191|
|         650|   -5.348426|   -7.618013|    0.824096|    0.012191|
|         651|   -5.356086|   -7.618573|    0.824095|    0.012191|
|         652|   -5.365098|   -7.619061|    0.824094|    0.012191|
|         653|   -5.375047|   -7.619484|    0.824093|    0.012191|
|         654|   -5.385442|   -7.619841|    0.824091|    0.012191|
|         655|   -5.395833|   -7.620135|    0.824090|    0.012191|
|         656|   -5.405893|   -7.620366|    0.824088|    0.012191|
|         657|   -5.415473|   -7.620535|    0.824087|    0.012191|
|         658|   -5.424601|   -7.620646|    0.824085|    0.012191|
|         659|   -5.433443|   -7.620705|    0.824084|    0.012190|
|         660|   -5.442238|   -7.620722|    0.824082|    0.012190|
|         661|   -5.451229|   -7.620707|    0.824080|    0.012190|
|         662|   -5.460623|   -7.620675|    0.824078|    0.012190|
|         663|   -5.470558|   -7.620645|    0.824076|    0.012190|
|         664|   -5.481105|   -7.620637|    0.824074|    0.012190|
|         665|   -5.492279|   -7.620677|    0.824072|    0.012190|
|         666|   -5.504061|   -7.620790|    0.824070|    0.012190|
|         667|   -5.516418|   -7.621006|    0.824068|    0.012190|
|         668|   -5.529317|   -7.621354|    0.824066|    0.012190|
|         669|   -5.542740|   -7.621863|    0.824064|    0.012190|
|         670|   -5.556683|   -7.622561|    0.824062|    0.012190|
|         671|   -5.571148|   -7.623470|    0.824060|    0.012190|
|         672|   -5.586144|   -7.624607|    0.824058|    0.012190|
|         673|   -5.601669|   -7.625982|    0.824056|    0.012191|
|         674|   -5.617708|   -7.627597|    0.824054|    0.012191|
|         675|   -5.634225|   -7.629446|    0.824053|    0.012191|
|         676|   -5.651163|   -7.631510|    0.824051|    0.012191|
|         677|   -5.668439|   -7.633762|    0.824049|    0.012191|
|         678|   -5.685947|   -7.636165|    0.824048|    0.012191|
|         679|   -5.703559|   -7.638673|    0.824047|    0.012191|
|         680|   -5.721128|   -7.641234|    0.824045|    0.012191|
|         681|   -5.738492|   -7.643788|    0.824044|    0.012191|
|         682|   -5.755474|   -7.646273|    0.824043|    0.012191|
|         683|   -5.771890|   -7.648627|    0.824043|    0.012191|
|         684|   -5.787554|   -7.650792|    0.824042|    0.012191|
|         685|   -5.802287|   -7.652714|    0.824042|    0.012192|
|         686|   -5.815924|   -7.654352|    0.824041|    0.012192|
|         687|   -5.828328|   -7.655675|    0.824041|    0.012192|
|         688|   -5.839397|   -7.656669|    0.824041|    0.012192|
|         689|   -5.849073|   -7.657334|    0.824041|    0.012192|
|         690|   -5.857343|   -7.657686|    0.824042|    0.012192|
|         691|   -5.864242|   -7.657759|    0.824042|    0.012192|
|         692|   -5.869847|   -7.657597|    0.824043|    0.012192|
|         693|   -5.874269|   -7.657257|    0.824044|    0.012193|
|         694|   -5.877642|   -7.656804|    0.824044|    0.012193|
|         695|   -5.880118|   -7.656305|    0.824045|    0.012193|
|         696|   -5.881849|   -7.655831|    0.824047|    0.012193|
|         697|   -5.882988|   -7.655445|    0.824048|    0.012193|
|         698|   -5.883678|   -7.655210|    0.824049|    0.012193|
|         699|   -5.884048|   -7.655177|    0.824051|    0.012193|
|         700|   -5.884216|   -7.655387|    0.824052|    0.012193|
|         701|   -5.884282|   -7.655873|    0.824054|    0.012190|
+-----------------------------------------------------------------------+
|Fixed CL Mode                           |Value                         |
+-----------------------------------------------------------------------+
|Current CL                              |0.824054                      |
|Target CL                               |0.824                         |
|Previous AOA                            |2.78346                       |
|Changed AoA by                          |-0.000260353                  |
+-----------------------------------------------------------------------+
+----------------------------------------------------------------+
|  Inner_Iter|    rms[Rho]|     rms[nu]|          CL|          CD|
+----------------------------------------------------------------+
|         702|   -3.777792|   -7.588888|    0.824055|    0.012190|
|         703|   -4.161429|   -7.621206|    0.824057|    0.012190|
|         704|   -4.402701|   -7.632447|    0.824059|    0.012190|
|         705|   -4.479939|   -7.639553|    0.824060|    0.012190|
|         706|   -4.533179|   -7.645334|    0.824062|    0.012191|
|         707|   -4.602696|   -7.650428|    0.824064|    0.012191|
|         708|   -4.688974|   -7.655017|    0.824066|    0.012191|
|         709|   -4.779848|   -7.659187|    0.824067|    0.012191|
|         710|   -4.859526|   -7.662967|    0.824069|    0.012191|
|         711|   -4.919614|   -7.666325|    0.824071|    0.012191|
|         712|   -4.960889|   -7.669234|    0.824072|    0.012191|
|         713|   -4.986164|   -7.671732|    0.824074|    0.012191|
|         714|   -4.998545|   -7.673899|    0.824076|    0.012191|
|         715|   -5.003785|   -7.675788|    0.824077|    0.012192|
|         716|   -5.008940|   -7.677407|    0.824078|    0.012192|
|         717|   -5.018971|   -7.678732|    0.824080|    0.012192|
|         718|   -5.035269|   -7.679756|    0.824081|    0.012192|
|         719|   -5.056204|   -7.680508|    0.824082|    0.012192|
|         720|   -5.078680|   -7.681039|    0.824083|    0.012192|
|         721|   -5.100031|   -7.681403|    0.824084|    0.012192|
|         722|   -5.119369|   -7.681637|    0.824085|    0.012192|
|         723|   -5.137537|   -7.681767|    0.824086|    0.012192|
|         724|   -5.155920|   -7.681811|    0.824087|    0.012192|
|         725|   -5.175300|   -7.681791|    0.824087|    0.012192|
|         726|   -5.195455|   -7.681735|    0.824088|    0.012192|
|         727|   -5.215412|   -7.681681|    0.824088|    0.012192|
|         728|   -5.233940|   -7.681674|    0.824088|    0.012192|
|         729|   -5.249970|   -7.681757|    0.824089|    0.012192|
|         730|   -5.262844|   -7.681972|    0.824089|    0.012192|
|         731|   -5.272446|   -7.682351|    0.824089|    0.012192|
|         732|   -5.279248|   -7.682920|    0.824089|    0.012192|
|         733|   -5.284231|   -7.683694|    0.824088|    0.012192|
|         734|   -5.288650|   -7.684681|    0.824088|    0.012192|
|         735|   -5.293733|   -7.685868|    0.824088|    0.012192|
|         736|   -5.300430|   -7.687239|    0.824087|    0.012192|
|         737|   -5.309266|   -7.688771|    0.824087|    0.012192|
|         738|   -5.320310|   -7.690434|    0.824086|    0.012192|
|         739|   -5.333188|   -7.692193|    0.824086|    0.012192|
|         740|   -5.347134|   -7.694018|    0.824085|    0.012192|
|         741|   -5.361096|   -7.695874|    0.824084|    0.012192|
|         742|   -5.373932|   -7.697733|    0.824083|    0.012192|
|         743|   -5.384696|   -7.699569|    0.824083|    0.012192|
|         744|   -5.392924|   -7.701362|    0.824082|    0.012192|
|         745|   -5.398787|   -7.703097|    0.824081|    0.012192|
|         746|   -5.403011|   -7.704764|    0.824080|    0.012192|
|         747|   -5.406619|   -7.706354|    0.824079|    0.012191|
|         748|   -5.410622|   -7.707860|    0.824078|    0.012191|
|         749|   -5.415793|   -7.709279|    0.824077|    0.012191|
|         750|   -5.422555|   -7.710607|    0.824075|    0.012191|
|         751|   -5.430976|   -7.711841|    0.824074|    0.012191|
|         752|   -5.440830|   -7.712978|    0.824073|    0.012191|
|         753|   -5.451689|   -7.714023|    0.824072|    0.012191|
|         754|   -5.463040|   -7.714967|    0.824070|    0.012191|
|         755|   -5.474401|   -7.715810|    0.824069|    0.012191|
|         756|   -5.485415|   -7.716550|    0.824067|    0.012191|
|         757|   -5.495909|   -7.717181|    0.824066|    0.012191|
|         758|   -5.505902|   -7.717704|    0.824064|    0.012191|
|         759|   -5.515558|   -7.718122|    0.824063|    0.012191|
|         760|   -5.525129|   -7.718439|    0.824061|    0.012191|
|         761|   -5.534876|   -7.718668|    0.824060|    0.012190|
|         762|   -5.545018|   -7.718823|    0.824058|    0.012190|
|         763|   -5.555707|   -7.718921|    0.824056|    0.012190|
|         764|   -5.567019|   -7.718988|    0.824054|    0.012190|
|         765|   -5.578971|   -7.719051|    0.824052|    0.012190|
|         766|   -5.591540|   -7.719141|    0.824051|    0.012190|
|         767|   -5.604684|   -7.719292|    0.824049|    0.012190|
|         768|   -5.618366|   -7.719539|    0.824047|    0.012190|
|         769|   -5.632558|   -7.719917|    0.824045|    0.012190|
|         770|   -5.647249|   -7.720458|    0.824043|    0.012190|
|         771|   -5.662438|   -7.721191|    0.824041|    0.012190|
|         772|   -5.678122|   -7.722139|    0.824040|    0.012190|
|         773|   -5.694294|   -7.723315|    0.824038|    0.012190|
|         774|   -5.710928|   -7.724726|    0.824036|    0.012190|
|         775|   -5.727973|   -7.726368|    0.824035|    0.012190|
|         776|   -5.745353|   -7.728223|    0.824033|    0.012190|
|         777|   -5.762960|   -7.730267|    0.824032|    0.012190|
|         778|   -5.780663|   -7.732463|    0.824031|    0.012190|
|         779|   -5.798303|   -7.734766|    0.824029|    0.012190|
|         780|   -5.815702|   -7.737121|    0.824028|    0.012190|
|         781|   -5.832665|   -7.739469|    0.824027|    0.012190|
|         782|   -5.848988|   -7.741748|    0.824027|    0.012190|
|         783|   -5.864466|   -7.743896|    0.824026|    0.012190|
|         784|   -5.878900|   -7.745854|    0.824025|    0.012190|
|         785|   -5.892112|   -7.747568|    0.824025|    0.012191|
|         786|   -5.903956|   -7.748999|    0.824025|    0.012191|
|         787|   -5.914325|   -7.750116|    0.824025|    0.012191|
|         788|   -5.923168|   -7.750907|    0.824025|    0.012191|
|         789|   -5.930486|   -7.751375|    0.824025|    0.012191|
|         790|   -5.936334|   -7.751538|    0.824025|    0.012191|
|         791|   -5.940815|   -7.751432|    0.824025|    0.012191|
|         792|   -5.944070|   -7.751106|    0.824026|    0.012191|
|         793|   -5.946263|   -7.750619|    0.824027|    0.012191|
|         794|   -5.947572|   -7.750038|    0.824027|    0.012191|
|         795|   -5.948177|   -7.749434|    0.824028|    0.012191|
|         796|   -5.948248|   -7.748876|    0.824029|    0.012192|
|         797|   -5.947941|   -7.748432|    0.824030|    0.012192|
|         798|   -5.947397|   -7.748163|    0.824031|    0.012192|
|         799|   -5.946735|   -7.748121|    0.824033|    0.012192|
|         800|   -5.946058|   -7.748348|    0.824034|    0.012192|
|         801|   -5.945449|   -7.748875|    0.824035|    0.012190|
+-----------------------------------------------------------------------+
|Fixed CL Mode                           |Value                         |
+-----------------------------------------------------------------------+
|Current CL                              |0.824035                      |
|Target CL                               |0.824                         |
|Previous AOA                            |2.7832                        |
|Changed AoA by                          |-0.000169664                  |
+-----------------------------------------------------------------------+
+----------------------------------------------------------------+
|  Inner_Iter|    rms[Rho]|     rms[nu]|          CL|          CD|
+----------------------------------------------------------------+
|         802|   -3.963748|   -7.703092|    0.824037|    0.012190|
|         803|   -4.347079|   -7.726239|    0.824038|    0.012190|
|         804|   -4.587384|   -7.734476|    0.824040|    0.012190|
|         805|   -4.664041|   -7.739958|    0.824041|    0.012190|
|         806|   -4.717029|   -7.744622|    0.824042|    0.012190|
|         807|   -4.786280|   -7.748893|    0.824044|    0.012190|
|         808|   -4.872204|   -7.752876|    0.824045|    0.012191|
|         809|   -4.962746|   -7.756607|    0.824047|    0.012191|
|         810|   -5.042369|   -7.760085|    0.824048|    0.012191|
|         811|   -5.102840|   -7.763263|    0.824050|    0.012191|
|         812|   -5.144836|   -7.766100|    0.824051|    0.012191|
|         813|   -5.170932|   -7.768598|    0.824052|    0.012191|
|         814|   -5.184006|   -7.770791|    0.824054|    0.012191|
|         815|   -5.189686|   -7.772696|    0.824055|    0.012191|
|         816|   -5.195034|   -7.774305|    0.824056|    0.012191|
|         817|   -5.205084|   -7.775598|    0.824057|    0.012192|
|         818|   -5.221300|   -7.776571|    0.824058|    0.012192|
|         819|   -5.242115|   -7.777249|    0.824059|    0.012192|
|         820|   -5.264486|   -7.777677|    0.824060|    0.012192|
|         821|   -5.285795|   -7.777906|    0.824061|    0.012192|
|         822|   -5.305176|   -7.777980|    0.824062|    0.012192|
|         823|   -5.323463|   -7.777937|    0.824062|    0.012192|
|         824|   -5.342002|   -7.777811|    0.824063|    0.012192|
|         825|   -5.361523|   -7.777637|    0.824063|    0.012192|
|         826|   -5.381747|   -7.777455|    0.824064|    0.012192|
|         827|   -5.401644|   -7.777314|    0.824064|    0.012192|
|         828|   -5.419943|   -7.777259|    0.824064|    0.012192|
|         829|   -5.435564|   -7.777339|    0.824064|    0.012192|
|         830|   -5.447883|   -7.777595|    0.824064|    0.012192|
|         831|   -5.456842|   -7.778061|    0.824064|    0.012192|
|         832|   -5.462983|   -7.778760|    0.824064|    0.012192|
|         833|   -5.467334|   -7.779709|    0.824064|    0.012192|
|         834|   -5.471169|   -7.780909|    0.824064|    0.012192|
|         835|   -5.475702|   -7.782355|    0.824064|    0.012192|
|         836|   -5.481844|   -7.784028|    0.824063|    0.012192|
|         837|   -5.490077|   -7.785905|    0.824063|    0.012192|
|         838|   -5.500427|   -7.787957|    0.824062|    0.012192|
|         839|   -5.512485|   -7.790151|    0.824062|    0.012192|
|         840|   -5.525472|   -7.792453|    0.824061|    0.012192|
|         841|   -5.538347|   -7.794830|    0.824061|    0.012192|
|         842|   -5.550016|   -7.797250|    0.824060|    0.012192|
|         843|   -5.559600|   -7.799689|    0.824059|    0.012192|
|         844|   -5.566707|   -7.802122|    0.824058|    0.012192|
|         845|   -5.571551|   -7.804530|    0.824058|    0.012192|
|         846|   -5.574861|   -7.806900|    0.824057|    0.012192|
|         847|   -5.577625|   -7.809223|    0.824056|    0.012192|
|         848|   -5.580797|   -7.811491|    0.824055|    0.012192|
|         849|   -5.585095|   -7.813702|    0.824055|    0.012192|
|         850|   -5.590898|   -7.815851|    0.824054|    0.012192|
|         851|   -5.598254|   -7.817939|    0.824053|    0.012192|
|         852|   -5.606936|   -7.819966|    0.824052|    0.012192|
|         853|   -5.616538|   -7.821930|    0.824051|    0.012192|
|         854|   -5.626587|   -7.823831|    0.824050|    0.012192|
|         855|   -5.636648|   -7.825661|    0.824049|    0.012192|
|         856|   -5.646408|   -7.827417|    0.824048|    0.012192|
|         857|   -5.655727|   -7.829093|    0.824047|    0.012192|
|         858|   -5.664633|   -7.830684|    0.824046|    0.012192|
|         859|   -5.673284|   -7.832186|    0.824045|    0.012191|
|         860|   -5.681908|   -7.833593|    0.824044|    0.012191|
|         861|   -5.690736|   -7.834904|    0.824043|    0.012191|
|         862|   -5.699959|   -7.836121|    0.824042|    0.012191|
|         863|   -5.709704|   -7.837248|    0.824041|    0.012191|
|         864|   -5.720032|   -7.838295|    0.824039|    0.012191|
|         865|   -5.730950|   -7.839277|    0.824038|    0.012191|
|         866|   -5.742432|   -7.840214|    0.824037|    0.012191|
|         867|   -5.754436|   -7.841127|    0.824036|    0.012191|
|         868|   -5.766922|   -7.842046|    0.824035|    0.012191|
|         869|   -5.779861|   -7.842999|    0.824034|    0.012191|
|         870|   -5.793232|   -7.844017|    0.824032|    0.012191|
|         871|   -5.807026|   -7.845128|    0.824031|    0.012191|
|         872|   -5.821230|   -7.846359|    0.824030|    0.012191|
|         873|   -5.835822|   -7.847732|    0.824029|    0.012191|
|         874|   -5.850763|   -7.849264|    0.824028|    0.012191|
|         875|   -5.865994|   -7.850963|    0.824027|    0.012191|
|         876|   -5.881428|   -7.852829|    0.824026|    0.012191|
|         877|   -5.896957|   -7.854852|    0.824025|    0.012191|
|         878|   -5.912448|   -7.857013|    0.824025|    0.012191|
|         879|   -5.927748|   -7.859285|    0.824024|    0.012191|
|         880|   -5.942692|   -7.861630|    0.824023|    0.012191|
|         881|   -5.957103|   -7.864006|    0.824023|    0.012191|
|         882|   -5.970803|   -7.866365|    0.824022|    0.012191|
|         883|   -5.983618|   -7.868654|    0.824022|    0.012191|
|         884|   -5.995388|   -7.870822|    0.824021|    0.012191|
|         885|   -6.005974|   -7.872821|    0.824021|    0.012191|
|         886|   -6.015269|   -7.874607|    0.824021|    0.012191|
|         887|   -6.023206|   -7.876146|    0.824021|    0.012191|
|         888|   -6.029760|   -7.877414|    0.824021|    0.012191|
|         889|   -6.034951|   -7.878401|    0.824021|    0.012191|
|         890|   -6.038840|   -7.879110|    0.824021|    0.012191|
|         891|   -6.041527|   -7.879559|    0.824022|    0.012192|
|         892|   -6.043137|   -7.879778|    0.824022|    0.012192|
|         893|   -6.043815|   -7.879810|    0.824023|    0.012192|
|         894|   -6.043713|   -7.879707|    0.824023|    0.012192|
|         895|   -6.042987|   -7.879525|    0.824024|    0.012192|
|         896|   -6.041783|   -7.879328|    0.824024|    0.012192|
|         897|   -6.040240|   -7.879175|    0.824025|    0.012192|
|         898|   -6.038483|   -7.879128|    0.824026|    0.012192|
|         899|   -6.036623|   -7.879238|    0.824027|    0.012192|
|         900|   -6.034756|   -7.879553|    0.824028|    0.012192|
|         901|   -6.032965|   -7.880109|    0.824028|    0.012190|
+-----------------------------------------------------------------------+
|Fixed CL Mode                           |Value                         |
+-----------------------------------------------------------------------+
|Current CL                              |0.824028                      |
|Target CL                               |0.824                         |
|Previous AOA                            |2.78303                       |
[...]
|        5298|   -6.036916|   -7.930756|    0.824238|    0.012196|
|        5299|   -6.043344|   -7.934725|    0.824238|    0.012196|
|        5300|   -6.049438|   -7.938769|    0.824238|    0.012196|
|        5301|   -6.055162|   -7.942901|    0.824238|    0.012196|
|        5302|   -6.060490|   -7.947130|    0.824239|    0.012196|
|        5303|   -6.065405|   -7.951461|    0.824239|    0.012196|
|        5304|   -6.069899|   -7.955896|    0.824239|    0.012196|
|        5305|   -6.073975|   -7.960436|    0.824239|    0.012196|
|        5306|   -6.077645|   -7.965075|    0.824239|    0.012196|
|        5307|   -6.080931|   -7.969810|    0.824239|    0.012196|
|        5308|   -6.083863|   -7.974633|    0.824239|    0.012196|
|        5309|   -6.086478|   -7.979538|    0.824240|    0.012196|
|        5310|   -6.088818|   -7.984520|    0.824240|    0.012196|
|        5311|   -6.090928|   -7.989571|    0.824240|    0.012196|
|        5312|   -6.092858|   -7.994686|    0.824240|    0.012196|
|        5313|   -6.094655|   -7.999860|    0.824240|    0.012196|
|        5314|   -6.096367|   -8.005087|    0.824240|    0.012196|
|        5315|   -6.098043|   -8.010363|    0.824241|    0.012196|
|        5316|   -6.099725|   -8.015685|    0.824241|    0.012196|
|        5317|   -6.101453|   -8.021051|    0.824241|    0.012196|
|        5318|   -6.103265|   -8.026459|    0.824241|    0.012196|
|        5319|   -6.105189|   -8.031909|    0.824241|    0.012196|
|        5320|   -6.107252|   -8.037399|    0.824242|    0.012196|
|        5321|   -6.109472|   -8.042929|    0.824242|    0.012196|
|        5322|   -6.111865|   -8.048499|    0.824242|    0.012196|
|        5323|   -6.114437|   -8.054107|    0.824242|    0.012196|
|        5324|   -6.117189|   -8.059753|    0.824242|    0.012196|
|        5325|   -6.120116|   -8.065433|    0.824243|    0.012196|
|        5326|   -6.123209|   -8.071145|    0.824243|    0.012197|
|        5327|   -6.126449|   -8.076884|    0.824243|    0.012197|
|        5328|   -6.129817|   -8.082644|    0.824243|    0.012197|
|        5329|   -6.133285|   -8.088418|    0.824244|    0.012197|
|        5330|   -6.136823|   -8.094201|    0.824244|    0.012197|
|        5331|   -6.140397|   -8.099984|    0.824244|    0.012197|
|        5332|   -6.143971|   -8.105758|    0.824244|    0.012197|
|        5333|   -6.147508|   -8.111517|    0.824245|    0.012197|
|        5334|   -6.150968|   -8.117251|    0.824245|    0.012197|
|        5335|   -6.154317|   -8.122955|    0.824245|    0.012197|
|        5336|   -6.157519|   -8.128621|    0.824245|    0.012198|
|        5337|   -6.160544|   -8.134246|    0.824245|    0.012198|
|        5338|   -6.163366|   -8.139826|    0.824246|    0.012198|
|        5339|   -6.165964|   -8.145359|    0.824246|    0.012198|
|        5340|   -6.168327|   -8.150845|    0.824246|    0.012198|
|        5341|   -6.170447|   -8.156287|    0.824246|    0.012198|
|        5342|   -6.172328|   -8.161688|    0.824247|    0.012198|
|        5343|   -6.173978|   -8.167055|    0.824247|    0.012198|
|        5344|   -6.175414|   -8.172394|    0.824247|    0.012198|
|        5345|   -6.176660|   -8.177714|    0.824247|    0.012198|
|        5346|   -6.177746|   -8.183022|    0.824247|    0.012198|
|        5347|   -6.178705|   -8.188330|    0.824248|    0.012198|
|        5348|   -6.179576|   -8.193649|    0.824248|    0.012198|
|        5349|   -6.180400|   -8.198992|    0.824248|    0.012199|
|        5350|   -6.181218|   -8.204372|    0.824248|    0.012199|
|        5351|   -6.182073|   -8.209802|    0.824248|    0.012199|
|        5352|   -6.183007|   -8.215295|    0.824248|    0.012199|
|        5353|   -6.184058|   -8.220862|    0.824249|    0.012199|
|        5354|   -6.185264|   -8.226512|    0.824249|    0.012199|
|        5355|   -6.186660|   -8.232251|    0.824249|    0.012199|
|        5356|   -6.188276|   -8.238086|    0.824249|    0.012199|
|        5357|   -6.190139|   -8.244020|    0.824249|    0.012199|
|        5358|   -6.192271|   -8.250058|    0.824249|    0.012199|
|        5359|   -6.194692|   -8.256204|    0.824250|    0.012199|
|        5360|   -6.197415|   -8.262458|    0.824250|    0.012199|
|        5361|   -6.200450|   -8.268823|    0.824250|    0.012199|
|        5362|   -6.203801|   -8.275296|    0.824250|    0.012199|
|        5363|   -6.207468|   -8.281876|    0.824250|    0.012199|
|        5364|   -6.211446|   -8.288558|    0.824250|    0.012199|
|        5365|   -6.215725|   -8.295336|    0.824250|    0.012199|
|        5366|   -6.220292|   -8.302204|    0.824250|    0.012199|
|        5367|   -6.225126|   -8.309153|    0.824250|    0.012199|
|        5368|   -6.230205|   -8.316172|    0.824251|    0.012199|
|        5369|   -6.235501|   -8.323251|    0.824251|    0.012199|
|        5370|   -6.240981|   -8.330380|    0.824251|    0.012199|
|        5371|   -6.246609|   -8.337546|    0.824251|    0.012199|
|        5372|   -6.252346|   -8.344738|    0.824251|    0.012199|
|        5373|   -6.258149|   -8.351944|    0.824251|    0.012199|
|        5374|   -6.263971|   -8.359154|    0.824251|    0.012199|
|        5375|   -6.269768|   -8.366357|    0.824251|    0.012199|
|        5376|   -6.275491|   -8.373544|    0.824251|    0.012199|
|        5377|   -6.281093|   -8.380705|    0.824252|    0.012198|
|        5378|   -6.286528|   -8.387833|    0.824252|    0.012198|
|        5379|   -6.291752|   -8.394920|    0.824252|    0.012198|
|        5380|   -6.296725|   -8.401961|    0.824252|    0.012198|
|        5381|   -6.301411|   -8.408949|    0.824252|    0.012198|
|        5382|   -6.305780|   -8.415880|    0.824252|    0.012198|
|        5383|   -6.309807|   -8.422749|    0.824252|    0.012198|
|        5384|   -6.313475|   -8.429551|    0.824253|    0.012198|
|        5385|   -6.316773|   -8.436279|    0.824253|    0.012198|
|        5386|   -6.319695|   -8.442929|    0.824253|    0.012198|
|        5387|   -6.322246|   -8.449490|    0.824253|    0.012198|
|        5388|   -6.324433|   -8.455954|    0.824253|    0.012198|
|        5389|   -6.326269|   -8.462307|    0.824254|    0.012198|
|        5390|   -6.327774|   -8.468536|    0.824254|    0.012197|
|        5391|   -6.328967|   -8.474622|    0.824254|    0.012197|
|        5392|   -6.329874|   -8.480545|    0.824254|    0.012197|
|        5393|   -6.330520|   -8.486281|    0.824254|    0.012197|
|        5394|   -6.330931|   -8.491802|    0.824255|    0.012197|
|        5395|   -6.331132|   -8.497081|    0.824255|    0.012197|
|        5396|   -6.331149|   -8.502086|    0.824255|    0.012197|
|        5397|   -6.331004|   -8.506785|    0.824256|    0.012197|
|        5398|   -6.330719|   -8.511145|    0.824256|    0.012197|
|        5399|   -6.330314|   -8.515136|    0.824256|    0.012197|
|        5400|   -6.329806|   -8.518729|    0.824257|    0.012197|
|        5401|   -6.329211|   -8.521896|    0.824257|    0.012197|
|        5402|   -6.328540|   -8.524615|    0.824257|    0.012196|
|        5403|   -6.327806|   -8.526870|    0.824258|    0.012196|
|        5404|   -6.327018|   -8.528654|    0.824258|    0.012196|
|        5405|   -6.326185|   -8.529970|    0.824258|    0.012196|
|        5406|   -6.325312|   -8.530827|    0.824259|    0.012196|
|        5407|   -6.324405|   -8.531242|    0.824259|    0.012196|
|        5408|   -6.323469|   -8.531236|    0.824259|    0.012196|
|        5409|   -6.322509|   -8.530836|    0.824260|    0.012196|
|        5410|   -6.321527|   -8.530075|    0.824260|    0.012196|
|        5411|   -6.320527|   -8.528988|    0.824260|    0.012196|
|        5412|   -6.319514|   -8.527614|    0.824261|    0.012196|
|        5413|   -6.318490|   -8.525994|    0.824261|    0.012196|
|        5414|   -6.317459|   -8.524171|    0.824261|    0.012196|
|        5415|   -6.316425|   -8.522183|    0.824262|    0.012195|
|        5416|   -6.315393|   -8.520070|    0.824262|    0.012195|
|        5417|   -6.314366|   -8.517868|    0.824262|    0.012195|
|        5418|   -6.313351|   -8.515611|    0.824263|    0.012195|
|        5419|   -6.312353|   -8.513328|    0.824263|    0.012195|
|        5420|   -6.311377|   -8.511043|    0.824263|    0.012195|
|        5421|   -6.310431|   -8.508778|    0.824264|    0.012195|
|        5422|   -6.309523|   -8.506548|    0.824264|    0.012195|
|        5423|   -6.308660|   -8.504367|    0.824264|    0.012195|
|        5424|   -6.307851|   -8.502243|    0.824264|    0.012195|
|        5425|   -6.307106|   -8.500181|    0.824265|    0.012195|
|        5426|   -6.306435|   -8.498183|    0.824265|    0.012195|
|        5427|   -6.305849|   -8.496249|    0.824265|    0.012195|
|        5428|   -6.305361|   -8.494380|    0.824266|    0.012195|
|        5429|   -6.304983|   -8.492570|    0.824266|    0.012195|
|        5430|   -6.304728|   -8.490816|    0.824266|    0.012195|
|        5431|   -6.304609|   -8.489114|    0.824266|    0.012195|
|        5432|   -6.304640|   -8.487458|    0.824267|    0.012195|
|        5433|   -6.304835|   -8.485843|    0.824267|    0.012195|
|        5434|   -6.305209|   -8.484265|    0.824267|    0.012195|
|        5435|   -6.305774|   -8.482720|    0.824267|    0.012195|
|        5436|   -6.306544|   -8.481204|    0.824267|    0.012195|
|        5437|   -6.307533|   -8.479715|    0.824268|    0.012195|
|        5438|   -6.308750|   -8.478251|    0.824268|    0.012195|
|        5439|   -6.310208|   -8.476812|    0.824268|    0.012195|
|        5440|   -6.311916|   -8.475396|    0.824268|    0.012195|
|        5441|   -6.313881|   -8.474004|    0.824269|    0.012196|
|        5442|   -6.316109|   -8.472639|    0.824269|    0.012196|
|        5443|   -6.318604|   -8.471300|    0.824269|    0.012196|
|        5444|   -6.321368|   -8.469992|    0.824269|    0.012196|
|        5445|   -6.324399|   -8.468714|    0.824269|    0.012196|
|        5446|   -6.327695|   -8.467470|    0.824269|    0.012196|
|        5447|   -6.331249|   -8.466263|    0.824270|    0.012196|
|        5448|   -6.335051|   -8.465092|    0.824270|    0.012196|
|        5449|   -6.339089|   -8.463962|    0.824270|    0.012196|
|        5450|   -6.343348|   -8.462872|    0.824270|    0.012196|
|        5451|   -6.347807|   -8.461825|    0.824270|    0.012196|
|        5452|   -6.352445|   -8.460820|    0.824270|    0.012196|
|        5453|   -6.357236|   -8.459859|    0.824270|    0.012196|
|        5454|   -6.362149|   -8.458941|    0.824270|    0.012196|
|        5455|   -6.367153|   -8.458067|    0.824271|    0.012197|
|        5456|   -6.372213|   -8.457235|    0.824271|    0.012197|
|        5457|   -6.377290|   -8.456446|    0.824271|    0.012197|
|        5458|   -6.382344|   -8.455698|    0.824271|    0.012197|
|        5459|   -6.387335|   -8.454989|    0.824271|    0.012197|
|        5460|   -6.392219|   -8.454320|    0.824271|    0.012197|
|        5461|   -6.396955|   -8.453688|    0.824271|    0.012197|
|        5462|   -6.401501|   -8.453093|    0.824271|    0.012197|
|        5463|   -6.405817|   -8.452532|    0.824271|    0.012197|
|        5464|   -6.409865|   -8.452004|    0.824271|    0.012197|
|        5465|   -6.413613|   -8.451507|    0.824271|    0.012197|
|        5466|   -6.417031|   -8.451039|    0.824271|    0.012197|
|        5467|   -6.420096|   -8.450599|    0.824271|    0.012197|
|        5468|   -6.422789|   -8.450185|    0.824271|    0.012198|
|        5469|   -6.425101|   -8.449793|    0.824271|    0.012198|
|        5470|   -6.427027|   -8.449422|    0.824272|    0.012198|
|        5471|   -6.428568|   -8.449068|    0.824272|    0.012198|
|        5472|   -6.429735|   -8.448730|    0.824272|    0.012198|
|        5473|   -6.430543|   -8.448402|    0.824272|    0.012198|
|        5474|   -6.431012|   -8.448083|    0.824272|    0.012198|
|        5475|   -6.431168|   -8.447767|    0.824272|    0.012198|
|        5476|   -6.431041|   -8.447452|    0.824272|    0.012198|
|        5477|   -6.430664|   -8.447132|    0.824272|    0.012198|
|        5478|   -6.430072|   -8.446804|    0.824272|    0.012198|
|        5479|   -6.429301|   -8.446464|    0.824272|    0.012198|
|        5480|   -6.428389|   -8.446106|    0.824272|    0.012198|
|        5481|   -6.427371|   -8.445726|    0.824272|    0.012198|
|        5482|   -6.426285|   -8.445321|    0.824272|    0.012198|
|        5483|   -6.425164|   -8.444885|    0.824272|    0.012198|
|        5484|   -6.424041|   -8.444415|    0.824272|    0.012198|
|        5485|   -6.422947|   -8.443907|    0.824272|    0.012198|
|        5486|   -6.421910|   -8.443358|    0.824272|    0.012198|
|        5487|   -6.420956|   -8.442765|    0.824272|    0.012198|
|        5488|   -6.420108|   -8.442126|    0.824272|    0.012198|
|        5489|   -6.419387|   -8.441439|    0.824272|    0.012198|
|        5490|   -6.418811|   -8.440702|    0.824272|    0.012198|
|        5491|   -6.418395|   -8.439916|    0.824272|    0.012198|
|        5492|   -6.418153|   -8.439079|    0.824272|    0.012198|
|        5493|   -6.418096|   -8.438192|    0.824272|    0.012198|
|        5494|   -6.418232|   -8.437257|    0.824272|    0.012198|
|        5495|   -6.418569|   -8.436270|    0.824272|    0.012198|
|        5496|   -6.419112|   -8.435237|    0.824272|    0.012198|
|        5497|   -6.419865|   -8.434162|    0.824272|    0.012198|
|        5498|   -6.420829|   -8.433048|    0.824272|    0.012198|
|        5499|   -6.422004|   -8.431896|    0.824273|    0.012184|
+-----------------------------------------------------------------------+
|Fixed CL Mode (Finite Difference)       |Value                         |
+-----------------------------------------------------------------------+
|Delta CL / Delta AoA                    |0.272431                      |
|Delta CD / Delta CL                     |0.0204452                     |
|Delta CMz / Delta CL                    |0.0314114                     |
+-----------------------------------------------------------------------+
Writing Flow Meta-Data file: flow.meta

----------------------------- Solver Exit -------------------------------

Maximum number of iterations reached (ITER = 5500) before convergence.
+-----------------------------------------------------------------------+
|      Convergence Field     |     Value    |   Criterion  |  Converged |
+-----------------------------------------------------------------------+
|                    rms[Rho]|        -6.422|         < -12|          No|
+-----------------------------------------------------------------------+
-------------------------------------------------------------------------

--------------------------- Finalizing Solver ---------------------------
Deleted CNumerics container.
Deleted CIntegration container.
Deleted CSolver container.
Deleted CIteration container.
Deleted CInterface container.
Deleted CGeometry container.
Deleted CFreeFormDefBox class.
Deleted CSurfaceMovement class.
Deleted CVolumetricMovement class.
Deleted CConfig container.
Deleted nInst container.
Deleted COutput class.
-------------------------------------------------------------------------

------------------------- Exit Success (SU2_CFD) ------------------------


-------------------------------------------------------------------------
|    ___ _   _ ___                                                      |
|   / __| | | |_  )   Release 8.0.0 "Harrier"                           |
|   \__ \ |_| |/ /                                                      |
|   |___/\___//___|   Suite (Solution Exporting Code)                   |
|                                                                       |
-------------------------------------------------------------------------
| SU2 Project Website: https://su2code.github.io                        |
|                                                                       |
| The SU2 Project is maintained by the SU2 Foundation                   |
| (http://su2foundation.org)                                            |
-------------------------------------------------------------------------
| Copyright 2012-2023, SU2 Contributors                                 |
|                                                                       |
| SU2 is free software; you can redistribute it and/or                  |
| modify it under the terms of the GNU Lesser General Public            |
| License as published by the Free Software Foundation; either          |
| version 2.1 of the License, or (at your option) any later version.    |
|                                                                       |
| SU2 is distributed in the hope that it will be useful,                |
| but WITHOUT ANY WARRANTY; without even the implied warranty of        |
| MERCHANTABILITY or FITNESS FOR A PARTICULAR PURPOSE. See the GNU      |
| Lesser General Public License for more details.                       |
|                                                                       |
| You should have received a copy of the GNU Lesser General Public      |
| License along with SU2. If not, see <http://www.gnu.org/licenses/>.   |
-------------------------------------------------------------------------

----------------- Physical Case Definition ( Zone 0 ) -------------------
Input mesh file name: mesh_RAE2822_turb_deform.su2

-------------------- Output Information ( Zone 0 ) ----------------------
The tabular file format is CSV (.csv).
Flow variables file name: flow.

------------- Config File Boundary Information ( Zone 0 ) ---------------
+-----------------------------------------------------------------------+
|                        Marker Type|                        Marker Name|
+-----------------------------------------------------------------------+
|                          Far-field|                           FARFIELD|
+-----------------------------------------------------------------------+
|                     Heat flux wall|                            AIRFOIL|
+-----------------------------------------------------------------------+
Two dimensional problem.
13937 grid points before partitioning.
22842 volume elements before partitioning.
2 surface markers.
192 boundary elements in index 0 (Marker = AIRFOIL).
40 boundary elements in index 1 (Marker = FARFIELD).
Executing the partitioning functions.
Building the graph adjacency structure.
Calling ParMETIS... graph partitioning complete (831 edge cuts).
Distributing ParMETIS coloring.
Rebalancing vertices.
Rebalancing volume element connectivity.
Rebalancing markers and surface elements.
14875 vertices including ghost points. 
23674 interior elements including halo cells. 
18780 triangles.
4894 quadrilaterals.
Establishing MPI communication patterns.
Identify vertices.
Storing a mapping from global to local point index.

------------------------- Solution Postprocessing -----------------------
Reading and storing the solution from restart_flow.
Volume output fields: COORDINATES, SOLUTION
  Info: Ignoring the following screen output fields:
  RMS_DENSITY, RMS_NU_TILDE, LIFT, DRAG
Screen output fields: INNER_ITER
  Info: Ignoring the following history output groups:
  RMS_RES, AERO_COEFF
History output group(s): ITER
Warning: No (valid) fields chosen for convergence monitoring. Convergence monitoring inactive.
Warning: No (valid) fields chosen for time convergence monitoring. Time convergence monitoring inactive.
|Paraview                           |flow.vtu                           |
|Paraview surface                   |surface_flow.vtu                   |
|CSV file                           |surface_flow.csv                   |

------------------------- Finalize Solver -------------------------
Deleted CGeometry container.
Deleted CSolver class.
Deleted CConfig container.
Deleted COutput class.

Completed in 0.019356 seconds on 6 cores.

------------------------- Exit Success (SU2_SOL) ------------------------

