
-------------------------------------------------------------------------
|    ___ _   _ ___                                                      |
|   / __| | | |_  )   Release 8.0.0 "Harrier"                           |
|   \__ \ |_| |/ /                                                      |
|   |___/\___//___|   Suite (Computational Fluid Dynamics Code)         |
|                                                                       |
-------------------------------------------------------------------------
| SU2 Project Website: https://su2code.github.io                        |
|                                                                       |
| The SU2 Project is maintained by the SU2 Foundation                   |
| (http://su2foundation.org)                                            |
-------------------------------------------------------------------------
| Copyright 2012-2023, SU2 Contributors                                 |
|                                                                       |
| SU2 is free software; you can redistribute it and/or                  |
| modify it under the terms of the GNU Lesser General Public            |
| License as published by the Free Software Foundation; either          |
| version 2.1 of the License, or (at your option) any later version.    |
|                                                                       |
| SU2 is distributed in the hope that it will be useful,                |
| but WITHOUT ANY WARRANTY; without even the implied warranty of        |
| MERCHANTABILITY or FITNESS FOR A PARTICULAR PURPOSE. See the GNU      |
| Lesser General Public License for more details.                       |
|                                                                       |
| You should have received a copy of the GNU Lesser General Public      |
| License along with SU2. If not, see <http://www.gnu.org/licenses/>.   |
-------------------------------------------------------------------------

Parsing config file for zone 0

----------------- Physical Case Definition ( Zone 0 ) -------------------
Compressible RANS equations.
Turbulence model: Spalart-Allmaras-noft2
Hybrid RANS/LES: No Hybrid RANS/LES
Mach number: 0.734.
Angle of attack (AoA): 2.31 deg, and angle of sideslip (AoS): 0 deg.
Reynolds number: 6.5e+06. Reference length 1.
Fixed CL mode, target value: 0.824.
Reading and writing binary SU2 native restart files.
Read flow solution from: solution_flow.dat.
Dimensional simulation.
The reference area is 1 m^2.
The semi-span will be computed using the max y(3D) value.
The reference length is 1 m.
Reference origin for moment evaluation is (0.25, 0, 0).
Surface(s) where the force coefficients are evaluated: AIRFOIL.

Surface(s) plotted in the output file: AIRFOIL.
Surface(s) affected by the design variables: AIRFOIL.
Input mesh file name: mesh_RAE2822_turb_deform.su2

--------------- Space Numerical Integration ( Zone 0 ) ------------------
Jameson-Schmidt-Turkel scheme (2nd order in space) for the flow inviscid terms.
JST viscous coefficients (2nd & 4th): 0.5, 0.02.
The method includes a grid stretching correction (p = 0.3).
Scalar upwind solver for the turbulence model.
First order integration in space.
Average of gradients with correction (viscous flow terms).
Average of gradients with correction (viscous turbulence terms).
Gradient for viscous and source terms: inverse-distance weighted Least-Squares.

--------------- Time Numerical Integration  ( Zone 0 ) ------------------
Local time stepping (steady state simulation).
Euler implicit method for the flow equations.
FGMRES is used for solving the linear system.
Using a ILU(0) preconditioning.
Convergence criteria of the linear solver: 1e-06.
Max number of linear iterations: 10.
No CFL adaptation.
Courant-Friedrichs-Lewy number:       10
Euler implicit time integration for the turbulence model.

------------------ Convergence Criteria  ( Zone 0 ) ---------------------
Maximum number of solver subiterations: 5500.
Begin convergence monitoring at iteration 10.
Residual minimum value: 1e-12.
Cauchy series min. value: 1e-06.
Number of Cauchy elements: 100.
Begin windowed time average at iteration 0.

-------------------- Output Information ( Zone 0 ) ----------------------
File writing frequency: 
+------------------------------------+
|                     File| Frequency|
+------------------------------------+
|                  RESTART|     10000|
|                 PARAVIEW|     10000|
|         SURFACE_PARAVIEW|     10000|
|              SURFACE_CSV|     10000|
+------------------------------------+
Writing the convergence history file every 1 inner iterations.
Writing the screen convergence history every 1 inner iterations.
The tabular file format is CSV (.csv).
Convergence history file name: history_direct.
Forces breakdown file name: forces_breakdown.dat.
Surface file name: surface_flow.
Volume file name: flow.
Restart file name: restart_flow.dat.

------------- Config File Boundary Information ( Zone 0 ) ---------------
+-----------------------------------------------------------------------+
|                        Marker Type|                        Marker Name|
+-----------------------------------------------------------------------+
|                          Far-field|                           FARFIELD|
+-----------------------------------------------------------------------+
|                     Heat flux wall|                            AIRFOIL|
+-----------------------------------------------------------------------+

-------------------- Output Preprocessing ( Zone 0 ) --------------------

WARNING: SURFACE_PRESSURE_DROP can only be computed for at least 2 surfaces (outlet, inlet, ...)

Screen output fields: INNER_ITER, RMS_DENSITY, RMS_NU_TILDE, LIFT, DRAG
History output group(s): ITER, RMS_RES, AERO_COEFF
Convergence field(s): RMS_DENSITY
Warning: No (valid) fields chosen for time convergence monitoring. Time convergence monitoring inactive.
Volume output fields: COORDINATES, SOLUTION, PRIMITIVE

------------------- Geometry Preprocessing ( Zone 0 ) -------------------
Two dimensional problem.
13937 grid points before partitioning.
22842 volume elements before partitioning.
2 surface markers.
192 boundary elements in index 0 (Marker = AIRFOIL).
40 boundary elements in index 1 (Marker = FARFIELD).
Executing the partitioning functions.
Building the graph adjacency structure.
Calling ParMETIS... graph partitioning complete (831 edge cuts).
Distributing ParMETIS coloring.
Rebalancing vertices.
Rebalancing volume element connectivity.
Rebalancing markers and surface elements.
14875 vertices including ghost points. 
23674 interior elements including halo cells. 
18780 triangles.
4894 quadrilaterals.
Establishing MPI communication patterns.
Setting point connectivity.
Renumbering points (Reverse Cuthill McKee Ordering).
Recomputing point connectivity.
Setting element connectivity.
Checking the numerical grid orientation.
All volume elements are correctly orientend.
All surface elements are correctly orientend.
Identifying edges and vertices.
Setting the control volume structure.
Area of the computational grid: 32209.9.
Searching for the closest normal neighbors to the surfaces.
Storing a mapping from global to local point index.
Compute the surface curvature.
Max K: 158.907. Mean K: 7.31655. Standard deviation K: 21.733.
Checking for periodicity.
Computing mesh quality statistics for the dual control volumes.
+--------------------------------------------------------------+
|           Mesh Quality Metric|        Minimum|        Maximum|
+--------------------------------------------------------------+
|    Orthogonality Angle (deg.)|        75.2882|         89.999|
|     CV Face Area Aspect Ratio|        1.00158|        3358.36|
|           CV Sub-Volume Ratio|        1.00061|        1210.75|
+--------------------------------------------------------------+
Finding max control volume width.
Communicating number of neighbors.
Wetted area = 2.02336 m.
Area projection in the x-plane = 0.123889 m, y-plane = 0.995873 m.
Max. coordinate in the x-direction = 1 m, y-direction = 0.0635959 m.
Min. coordinate in the x-direction = 0 m, y-direction = -0.0593581 m.
Computing wall distances.

-------------------- Solver Preprocessing ( Zone 0 ) --------------------
WARNING: AoA in the solution file (2.78129 deg.) +
         AoA offset in mesh file (0 deg.) = 2.78129 deg.
WARNING: SU2 will use the dCD/dCL provided in the direct solution file: 0.0190546.
WARNING: SU2 will use the dCMz/dCL provided in the direct solution file: -0.00126091.
Viscous flow: Computing pressure using the ideal gas law
based on the free-stream temperature and a density computed
from the Reynolds number.
Force coefficients computed using free-stream values.

-- Models:
+------------------------------------------------------------------------------+
|          Viscosity Model|        Conductivity Model|              Fluid Model|
+------------------------------------------------------------------------------+
|               SUTHERLAND|          CONSTANT_PRANDTL|             STANDARD_AIR|
+------------------------------------------------------------------------------+
-- Fluid properties:
+------------------------------------------------------------------------------+
|                  Name|    Dim. value|    Ref. value|      Unit|Non-dim. value|
+------------------------------------------------------------------------------+
|        Ref. Viscosity|     1.716e-05|             1|   N.s/m^2|     1.716e-05|
|      Sutherland Temp.|        273.15|             1|         K|        273.15|
|     Sutherland Const.|         110.4|             1|         K|         110.4|
+------------------------------------------------------------------------------+
|        Prandtl (Lam.)|             -|             -|         -|          0.71|
|       Prandtl (Turb.)|             -|             -|         -|           0.9|
+------------------------------------------------------------------------------+
|          Gas Constant|       287.058|             1|  N.m/kg.K|       287.058|
|      Spec. Heat Ratio|             -|             -|         -|           1.4|
+------------------------------------------------------------------------------+
-- Initial and free-stream conditions:
+------------------------------------------------------------------------------+
|                  Name|    Dim. value|    Ref. value|      Unit|Non-dim. value|
+------------------------------------------------------------------------------+
|       Static Pressure|         38515|             1|        Pa|         38515|
|               Density|      0.465631|             1|    kg/m^3|      0.465631|
|           Temperature|        288.15|             1|         K|        288.15|
|          Total Energy|        237984|             1|   m^2/s^2|        237984|
|            Velocity-X|       249.484|             1|       m/s|       249.484|
|            Velocity-Y|       12.1201|             1|       m/s|       12.1201|
|    Velocity Magnitude|       249.778|             1|       m/s|       249.778|
+------------------------------------------------------------------------------+
|             Viscosity|    1.7893e-05|             1|   N.s/m^2|    1.7893e-05|
|          Conductivity|             -|             1|   W/m^2.K|             -|
|     Turb. Kin. Energy|       233.959|             1|   m^2/s^2|       233.959|
|     Spec. Dissipation|        608834|             1|       1/s|        608834|
+------------------------------------------------------------------------------+
|           Mach Number|             -|             -|         -|         0.734|
|       Reynolds Number|             -|             -|         -|       6.5e+06|
+------------------------------------------------------------------------------+
Initialize Jacobian structure (Navier-Stokes). MG level: 0.
Initialize Jacobian structure (SA model).

------------------- Numerics Preprocessing ( Zone 0 ) -------------------

----------------- Integration Preprocessing ( Zone 0 ) ------------------

------------------- Iteration Preprocessing ( Zone 0 ) ------------------
Euler/Navier-Stokes/RANS fluid iteration.

------------------------------ Begin Solver -----------------------------

Simulation Run using the Single-zone Driver
WARNING: SU2 was not compiled for an AVX-capable architecture. Performance could be better,
         see https://su2code.github.io/docs_v7/Build-SU2-Linux-MacOS/#compiler-optimizations
+----------------------------------------------------------------+
|  Inner_Iter|    rms[Rho]|     rms[nu]|          CL|          CD|
+----------------------------------------------------------------+
|           0|   -5.654215|   -6.876431|    0.824012|    0.012152|
|           1|   -5.710255|   -6.972513|    0.824018|    0.012149|
|           2|   -5.770602|   -7.079631|    0.824020|    0.012148|
|           3|   -5.817339|   -7.195658|    0.824018|    0.012147|
|           4|   -5.850574|   -7.320498|    0.824016|    0.012146|
|           5|   -5.872638|   -7.445541|    0.824013|    0.012146|
|           6|   -5.885202|   -7.538157|    0.824011|    0.012146|
|           7|   -5.890484|   -7.561499|    0.824010|    0.012146|
|           8|   -5.890644|   -7.536329|    0.824010|    0.012146|
|           9|   -5.886667|   -7.507197|    0.824011|    0.012147|
|          10|   -5.878711|   -7.492713|    0.824012|    0.012147|
|          11|   -5.867281|   -7.492473|    0.824014|    0.012148|
|          12|   -5.853723|   -7.497821|    0.824015|    0.012149|
|          13|   -5.839778|   -7.496857|    0.824016|    0.012150|
|          14|   -5.826897|   -7.480275|    0.824017|    0.012151|
|          15|   -5.815889|   -7.447325|    0.824017|    0.012152|
|          16|   -5.806936|   -7.405090|    0.824017|    0.012153|
|          17|   -5.799812|   -7.362329|    0.824016|    0.012154|
|          18|   -5.794130|   -7.325353|    0.824015|    0.012155|
|          19|   -5.789528|   -7.297537|    0.824014|    0.012156|
|          20|   -5.785766|   -7.280129|    0.824012|    0.012156|
|          21|   -5.782724|   -7.272969|    0.824009|    0.012157|
|          22|   -5.780345|   -7.274874|    0.824007|    0.012158|
|          23|   -5.778573|   -7.283784|    0.824005|    0.012158|
|          24|   -5.777319|   -7.296886|    0.824003|    0.012159|
|          25|   -5.776473|   -7.310928|    0.824001|    0.012160|
|          26|   -5.775925|   -7.322898|    0.823999|    0.012160|
|          27|   -5.775593|   -7.330919|    0.823998|    0.012161|
|          28|   -5.775425|   -7.334844|    0.823997|    0.012161|
|          29|   -5.775379|   -7.336079|    0.823996|    0.012161|
|          30|   -5.775405|   -7.336766|    0.823996|    0.012162|
|          31|   -5.775429|   -7.338927|    0.823995|    0.012162|
|          32|   -5.775356|   -7.343975|    0.823995|    0.012162|
|          33|   -5.775089|   -7.352571|    0.823995|    0.012162|
|          34|   -5.774543|   -7.364691|    0.823994|    0.012163|
|          35|   -5.773669|   -7.379756|    0.823994|    0.012163|
|          36|   -5.772453|   -7.396782|    0.823993|    0.012163|
|          37|   -5.770923|   -7.414554|    0.823992|    0.012164|
|          38|   -5.769143|   -7.431813|    0.823991|    0.012164|
|          39|   -5.767199|   -7.447454|    0.823990|    0.012164|
|          40|   -5.765194|   -7.460703|    0.823988|    0.012164|
|          41|   -5.763234|   -7.471082|    0.823986|    0.012165|
|          42|   -5.761414|   -7.478491|    0.823984|    0.012165|
|          43|   -5.759804|   -7.483062|    0.823982|    0.012165|
|          44|   -5.758442|   -7.485072|    0.823980|    0.012166|
|          45|   -5.757323|   -7.484889|    0.823977|    0.012166|
|          46|   -5.756407|   -7.482965|    0.823975|    0.012166|
|          47|   -5.755622|   -7.479833|    0.823972|    0.012166|
|          48|   -5.754879|   -7.476090|    0.823970|    0.012167|
|          49|   -5.754091|   -7.472358|    0.823967|    0.012167|
|          50|   -5.753188|   -7.469226|    0.823964|    0.012167|
|          51|   -5.752124|   -7.467199|    0.823962|    0.012167|
|          52|   -5.750891|   -7.466653|    0.823959|    0.012167|
|          53|   -5.749511|   -7.467813|    0.823957|    0.012167|
|          54|   -5.748036|   -7.470751|    0.823954|    0.012167|
|          55|   -5.746531|   -7.475392|    0.823952|    0.012167|
|          56|   -5.745068|   -7.481538|    0.823949|    0.012167|
|          57|   -5.743711|   -7.488893|    0.823947|    0.012167|
|          58|   -5.742511|   -7.497094|    0.823945|    0.012167|
|          59|   -5.741501|   -7.505753|    0.823943|    0.012166|
|          60|   -5.740694|   -7.514488|    0.823941|    0.012166|
|          61|   -5.740084|   -7.522962|    0.823939|    0.012166|
|          62|   -5.739658|   -7.530907|    0.823938|    0.012165|
|          63|   -5.739391|   -7.538138|    0.823936|    0.012165|
|          64|   -5.739261|   -7.544572|    0.823934|    0.012165|
|          65|   -5.739249|   -7.550178|    0.823933|    0.012164|
|          66|   -5.739346|   -7.554995|    0.823931|    0.012164|
|          67|   -5.739547|   -7.559112|    0.823930|    0.012163|
|          68|   -5.739857|   -7.562639|    0.823929|    0.012163|
|          69|   -5.740283|   -7.565688|    0.823928|    0.012162|
|          70|   -5.740835|   -7.568367|    0.823927|    0.012162|
|          71|   -5.741518|   -7.570766|    0.823926|    0.012161|
|          72|   -5.742336|   -7.572961|    0.823925|    0.012161|
|          73|   -5.743287|   -7.575004|    0.823924|    0.012160|
|          74|   -5.744367|   -7.576927|    0.823924|    0.012160|
|          75|   -5.745571|   -7.578744|    0.823923|    0.012160|
|          76|   -5.746894|   -7.580456|    0.823923|    0.012159|
|          77|   -5.748337|   -7.582050|    0.823922|    0.012159|
|          78|   -5.749904|   -7.583514|    0.823922|    0.012158|
|          79|   -5.751607|   -7.584833|    0.823921|    0.012158|
|          80|   -5.753457|   -7.585998|    0.823921|    0.012157|
|          81|   -5.755470|   -7.587012|    0.823920|    0.012157|
|          82|   -5.757655|   -7.587887|    0.823920|    0.012156|
|          83|   -5.760016|   -7.588648|    0.823920|    0.012156|
|          84|   -5.762546|   -7.589329|    0.823919|    0.012156|
|          85|   -5.765223|   -7.589974|    0.823919|    0.012155|
|          86|   -5.768012|   -7.590634|    0.823919|    0.012155|
|          87|   -5.770865|   -7.591346|    0.823918|    0.012154|
|          88|   -5.773722|   -7.592158|    0.823918|    0.012154|
|          89|   -5.776519|   -7.593113|    0.823917|    0.012154|
|          90|   -5.779189|   -7.594247|    0.823917|    0.012153|
|          91|   -5.781668|   -7.595592|    0.823917|    0.012153|
|          92|   -5.783907|   -7.597172|    0.823916|    0.012152|
|          93|   -5.785869|   -7.599008|    0.823916|    0.012152|
|          94|   -5.787539|   -7.601113|    0.823915|    0.012152|
|          95|   -5.788922|   -7.603497|    0.823915|    0.012151|
|          96|   -5.790045|   -7.606169|    0.823915|    0.012151|
|          97|   -5.790952|   -7.609131|    0.823914|    0.012151|
|          98|   -5.791702|   -7.612386|    0.823914|    0.012150|
|          99|   -5.792367|   -7.615935|    0.823914|    0.012150|
|         100|   -5.793019|   -7.619777|    0.823913|    0.012150|
|         101|   -5.793735|   -7.623909|    0.823913|    0.012156|
+-----------------------------------------------------------------------+
|Fixed CL Mode                           |Value                         |
+-----------------------------------------------------------------------+
|Current CL                              |0.823913                      |
|Target CL                               |0.824                         |
|Previous AOA                            |2.78129                       |
|Changed AoA by                          |0.000433125                   |
+-----------------------------------------------------------------------+
+----------------------------------------------------------------+
|  Inner_Iter|    rms[Rho]|     rms[nu]|          CL|          CD|
+----------------------------------------------------------------+
|         102|   -3.556765|   -7.492565|    0.823913|    0.012155|
|         103|   -3.941511|   -7.554900|    0.823913|    0.012155|
|         104|   -4.186854|   -7.579152|    0.823913|    0.012155|
|         105|   -4.266879|   -7.595027|    0.823913|    0.012155|
|         106|   -4.321330|   -7.608150|    0.823913|    0.012155|
|         107|   -4.391820|   -7.619852|    0.823913|    0.012154|
|         108|   -4.479010|   -7.630499|    0.823913|    0.012154|
|         109|   -4.569998|   -7.640263|    0.823913|    0.012154|
|         110|   -4.647768|   -7.649207|    0.823913|    0.012154|
|         111|   -4.703610|   -7.657278|    0.823914|    0.012154|
|         112|   -4.739409|   -7.664464|    0.823914|    0.012154|
|         113|   -4.759514|   -7.670935|    0.823914|    0.012154|
|         114|   -4.768162|   -7.676981|    0.823915|    0.012154|
|         115|   -4.771360|   -7.682835|    0.823915|    0.012154|
|         116|   -4.775672|   -7.688566|    0.823915|    0.012154|
|         117|   -4.785427|   -7.694128|    0.823916|    0.012154|
|         118|   -4.801578|   -7.699484|    0.823916|    0.012154|
|         119|   -4.822267|   -7.704655|    0.823916|    0.012154|
|         120|   -4.844293|   -7.709693|    0.823917|    0.012154|
|         121|   -4.864937|   -7.714643|    0.823917|    0.012155|
|         122|   -4.883284|   -7.719488|    0.823918|    0.012155|
|         123|   -4.900173|   -7.724156|    0.823918|    0.012155|
|         124|   -4.917048|   -7.728547|    0.823918|    0.012155|
|         125|   -4.934829|   -7.732566|    0.823918|    0.012155|
|         126|   -4.953519|   -7.736145|    0.823919|    0.012155|
|         127|   -4.972413|   -7.739249|    0.823919|    0.012156|
|         128|   -4.990525|   -7.741890|    0.823919|    0.012156|
|         129|   -5.006914|   -7.744084|    0.823919|    0.012156|
|         130|   -5.020891|   -7.745851|    0.823920|    0.012156|
|         131|   -5.032148|   -7.747257|    0.823920|    0.012157|
|         132|   -5.040871|   -7.748368|    0.823920|    0.012157|
|         133|   -5.047751|   -7.749258|    0.823920|    0.012157|
|         134|   -5.053836|   -7.749989|    0.823921|    0.012157|
|         135|   -5.060259|   -7.750612|    0.823921|    0.012158|
|         136|   -5.067975|   -7.751145|    0.823921|    0.012158|
|         137|   -5.077588|   -7.751618|    0.823921|    0.012158|
|         138|   -5.089284|   -7.752035|    0.823922|    0.012159|
|         139|   -5.102820|   -7.752395|    0.823922|    0.012159|
|         140|   -5.117557|   -7.752695|    0.823923|    0.012159|
|         141|   -5.132550|   -7.752936|    0.823923|    0.012159|
|         142|   -5.146718|   -7.753116|    0.823924|    0.012160|
|         143|   -5.159108|   -7.753238|    0.823924|    0.012160|
|         144|   -5.169182|   -7.753301|    0.823925|    0.012161|
|         145|   -5.176994|   -7.753297|    0.823926|    0.012161|
|         146|   -5.183156|   -7.753213|    0.823927|    0.012161|
|         147|   -5.188615|   -7.753025|    0.823928|    0.012162|
|         148|   -5.194356|   -7.752702|    0.823929|    0.012162|
|         149|   -5.201162|   -7.752209|    0.823930|    0.012162|
|         150|   -5.209485|   -7.751495|    0.823932|    0.012163|
|         151|   -5.219419|   -7.750508|    0.823933|    0.012163|
|         152|   -5.230746|   -7.749231|    0.823935|    0.012164|
|         153|   -5.243026|   -7.747643|    0.823936|    0.012164|
|         154|   -5.255709|   -7.745728|    0.823938|    0.012164|
|         155|   -5.268257|   -7.743501|    0.823940|    0.012165|
|         156|   -5.280252|   -7.740983|    0.823942|    0.012165|
|         157|   -5.291471|   -7.738217|    0.823945|    0.012166|
|         158|   -5.301897|   -7.735263|    0.823947|    0.012166|
|         159|   -5.311686|   -7.732194|    0.823950|    0.012166|
|         160|   -5.321092|   -7.729091|    0.823952|    0.012167|
|         161|   -5.330394|   -7.726041|    0.823955|    0.012167|
|         162|   -5.339825|   -7.723132|    0.823958|    0.012168|
|         163|   -5.349547|   -7.720452|    0.823961|    0.012168|
|         164|   -5.359639|   -7.718085|    0.823964|    0.012169|
|         165|   -5.370112|   -7.716108|    0.823967|    0.012169|
|         166|   -5.380929|   -7.714582|    0.823970|    0.012169|
|         167|   -5.392035|   -7.713561|    0.823973|    0.012170|
|         168|   -5.403371|   -7.713079|    0.823976|    0.012170|
|         169|   -5.414887|   -7.713152|    0.823980|    0.012171|
|         170|   -5.426549|   -7.713784|    0.823983|    0.012171|
|         171|   -5.438328|   -7.714955|    0.823986|    0.012171|
|         172|   -5.450197|   -7.716627|    0.823989|    0.012171|
|         173|   -5.462122|   -7.718738|    0.823991|    0.012172|
|         174|   -5.474052|   -7.721207|    0.823994|    0.012172|
|         175|   -5.485920|   -7.723938|    0.823997|    0.012172|
|         176|   -5.497641|   -7.726817|    0.823999|    0.012173|
|         177|   -5.509116|   -7.729724|    0.824001|    0.012173|
|         178|   -5.520237|   -7.732532|    0.824003|    0.012173|
|         179|   -5.530893|   -7.735120|    0.824005|    0.012173|
|         180|   -5.540976|   -7.737376|    0.824006|    0.012173|
|         181|   -5.550389|   -7.739207|    0.824008|    0.012173|
|         182|   -5.559050|   -7.740546|    0.824009|    0.012173|
|         183|   -5.566894|   -7.741358|    0.824010|    0.012173|
|         184|   -5.573883|   -7.741645|    0.824010|    0.012173|
|         185|   -5.580003|   -7.741441|    0.824011|    0.012173|
|         186|   -5.585265|   -7.740819|    0.824011|    0.012173|
|         187|   -5.589711|   -7.739877|    0.824011|    0.012173|
|         188|   -5.593403|   -7.738737|    0.824010|    0.012173|
|         189|   -5.596427|   -7.737538|    0.824010|    0.012173|
|         190|   -5.598883|   -7.736422|    0.824009|    0.012173|
|         191|   -5.600884|   -7.735539|    0.824008|    0.012173|
|         192|   -5.602545|   -7.735028|    0.824007|    0.012173|
|         193|   -5.603982|   -7.735023|    0.824006|    0.012173|
|         194|   -5.605303|   -7.735644|    0.824005|    0.012173|
|         195|   -5.606611|   -7.736998|    0.824003|    0.012172|
|         196|   -5.607994|   -7.739174|    0.824002|    0.012172|
|         197|   -5.609528|   -7.742248|    0.824000|    0.012172|
|         198|   -5.611277|   -7.746277|    0.823998|    0.012172|
|         199|   -5.613288|   -7.751304|    0.823996|    0.012171|
|         200|   -5.615598|   -7.757355|    0.823994|    0.012171|
|         201|   -5.618229|   -7.764437|    0.823992|    0.012171|
+-----------------------------------------------------------------------+
|Fixed CL Mode                           |Value                         |
+-----------------------------------------------------------------------+
|Current CL                              |0.823992                      |
|Target CL                               |0.824                         |
|Previous AOA                            |2.78172                       |
|Changed AoA by                          |2.86737e-05                   |
+-----------------------------------------------------------------------+
+----------------------------------------------------------------+
|  Inner_Iter|    rms[Rho]|     rms[nu]|          CL|          CD|
+----------------------------------------------------------------+
|         202|   -4.731645|   -7.770729|    0.823990|    0.012171|
|         203|   -5.090068|   -7.780621|    0.823988|    0.012171|
|         204|   -5.278981|   -7.790912|    0.823986|    0.012170|
|         205|   -5.333376|   -7.801988|    0.823984|    0.012170|
|         206|   -5.373066|   -7.813822|    0.823982|    0.012170|
|         207|   -5.420934|   -7.826308|    0.823980|    0.012170|
|         208|   -5.473215|   -7.839304|    0.823978|    0.012169|
|         209|   -5.521145|   -7.852637|    0.823976|    0.012169|
|         210|   -5.559095|   -7.866105|    0.823974|    0.012169|
|         211|   -5.587330|   -7.879477|    0.823972|    0.012168|
|         212|   -5.608421|   -7.892501|    0.823971|    0.012168|
|         213|   -5.623976|   -7.904916|    0.823969|    0.012168|
|         214|   -5.634832|   -7.916460|    0.823968|    0.012167|
|         215|   -5.642233|   -7.926888|    0.823966|    0.012167|
|         216|   -5.647930|   -7.935986|    0.823965|    0.012167|
|         217|   -5.653447|   -7.943592|    0.823964|    0.012167|
|         218|   -5.659510|   -7.949612|    0.823962|    0.012166|
|         219|   -5.666082|   -7.954028|    0.823961|    0.012166|
|         220|   -5.672775|   -7.956902|    0.823961|    0.012166|
|         221|   -5.679278|   -7.958365|    0.823960|    0.012166|
|         222|   -5.685524|   -7.958603|    0.823959|    0.012165|
|         223|   -5.691586|   -7.957840|    0.823959|    0.012165|
|         224|   -5.697481|   -7.956319|    0.823959|    0.012165|
|         225|   -5.703062|   -7.954288|    0.823958|    0.012165|
|         226|   -5.708063|   -7.951986|    0.823958|    0.012165|
|         227|   -5.712222|   -7.949636|    0.823959|    0.012164|
|         228|   -5.715400|   -7.947434|    0.823959|    0.012164|
|         229|   -5.717619|   -7.945554|    0.823959|    0.012164|
|         230|   -5.719041|   -7.944138|    0.823960|    0.012164|
|         231|   -5.719914|   -7.943306|    0.823961|    0.012164|
|         232|   -5.720511|   -7.943148|    0.823961|    0.012164|
|         233|   -5.721087|   -7.943730|    0.823962|    0.012164|
|         234|   -5.721844|   -7.945097|    0.823963|    0.012164|
|         235|   -5.722905|   -7.947271|    0.823964|    0.012164|
|         236|   -5.724311|   -7.950254|    0.823966|    0.012164|
|         237|   -5.726028|   -7.954031|    0.823967|    0.012164|
|         238|   -5.727966|   -7.958567|    0.823968|    0.012164|
|         239|   -5.730005|   -7.963813|    0.823970|    0.012164|
|         240|   -5.732025|   -7.969700|    0.823971|    0.012164|
|         241|   -5.733923|   -7.976148|    0.823973|    0.012164|
|         242|   -5.735634|   -7.983061|    0.823974|    0.012164|
|         243|   -5.737139|   -7.990330|    0.823976|    0.012164|
|         244|   -5.738464|   -7.997837|    0.823977|    0.012164|
|         245|   -5.739673|   -8.005455|    0.823979|    0.012164|
|         246|   -5.740852|   -8.013055|    0.823981|    0.012164|
|         247|   -5.742089|   -8.020510|    0.823982|    0.012164|
|         248|   -5.743462|   -8.027698|    0.823984|    0.012164|
|         249|   -5.745025|   -8.034509|    0.823985|    0.012164|
|         250|   -5.746803|   -8.040850|    0.823987|    0.012164|
|         251|   -5.748802|   -8.046646|    0.823988|    0.012164|
|         252|   -5.751007|   -8.051848|    0.823990|    0.012165|
|         253|   -5.753399|   -8.056428|    0.823991|    0.012165|
|         254|   -5.755958|   -8.060380|    0.823993|    0.012165|
|         255|   -5.758671|   -8.063718|    0.823994|    0.012165|
|         256|   -5.761533|   -8.066467|    0.823995|    0.012165|
|         257|   -5.764547|   -8.068664|    0.823996|    0.012165|
|         258|   -5.767723|   -8.070347|    0.823997|    0.012165|
|         259|   -5.771070|   -8.071551|    0.823998|    0.012165|
|         260|   -5.774594|   -8.072309|    0.823999|    0.012165|
|         261|   -5.778295|   -8.072641|    0.824000|    0.012165|
|         262|   -5.782162|   -8.072562|    0.824001|    0.012165|
|         263|   -5.786176|   -8.072074|    0.824002|    0.012165|
|         264|   -5.790307|   -8.071177|    0.824003|    0.012165|
|         265|   -5.794517|   -8.069862|    0.824004|    0.012166|
|         266|   -5.798761|   -8.068127|    0.824004|    0.012166|
|         267|   -5.802988|   -8.065968|    0.824005|    0.012166|
|         268|   -5.807143|   -8.063395|    0.824006|    0.012166|
|         269|   -5.811169|   -8.060426|    0.824006|    0.012166|
|         270|   -5.815005|   -8.057094|    0.824007|    0.012166|
|         271|   -5.818591|   -8.053448|    0.824007|    0.012166|
|         272|   -5.821867|   -8.049549|    0.824008|    0.012166|
|         273|   -5.824775|   -8.045470|    0.824008|    0.012166|
|         274|   -5.827262|   -8.041296|    0.824009|    0.012166|
|         275|   -5.829280|   -8.037117|    0.824009|    0.012166|
|         276|   -5.830789|   -8.033022|    0.824009|    0.012166|
|         277|   -5.831759|   -8.029101|    0.824010|    0.012166|
|         278|   -5.832173|   -8.025437|    0.824010|    0.012166|
|         279|   -5.832022|   -8.022104|    0.824011|    0.012166|
|         280|   -5.831314|   -8.019166|    0.824011|    0.012167|
|         281|   -5.830066|   -8.016672|    0.824011|    0.012167|
|         282|   -5.828309|   -8.014658|    0.824012|    0.012167|
|         283|   -5.826081|   -8.013142|    0.824012|    0.012167|
|         284|   -5.823431|   -8.012128|    0.824012|    0.012167|
|         285|   -5.820413|   -8.011605|    0.824013|    0.012167|
|         286|   -5.817086|   -8.011545|    0.824013|    0.012167|
|         287|   -5.813510|   -8.011906|    0.824013|    0.012167|
|         288|   -5.809747|   -8.012635|    0.824013|    0.012167|
|         289|   -5.805858|   -8.013667|    0.824014|    0.012167|
|         290|   -5.801901|   -8.014928|    0.824014|    0.012167|
|         291|   -5.797931|   -8.016342|    0.824014|    0.012167|
|         292|   -5.793999|   -8.017826|    0.824014|    0.012167|
|         293|   -5.790152|   -8.019301|    0.824014|    0.012167|
|         294|   -5.786433|   -8.020694|    0.824014|    0.012168|
|         295|   -5.782879|   -8.021936|    0.824014|    0.012168|
|         296|   -5.779523|   -8.022972|    0.824014|    0.012168|
|         297|   -5.776392|   -8.023760|    0.824014|    0.012168|
|         298|   -5.773512|   -8.024272|    0.824014|    0.012168|
|         299|   -5.770901|   -8.024493|    0.824014|    0.012168|
|         300|   -5.768577|   -8.024424|    0.824014|    0.012168|
|         301|   -5.766552|   -8.024077|    0.824014|    0.012167|
+-----------------------------------------------------------------------+
|Fixed CL Mode                           |Value                         |
+-----------------------------------------------------------------------+
|Current CL                              |0.824014                      |
|Target CL                               |0.824                         |
|Previous AOA                            |2.78175                       |
|Changed AoA by                          |-7.06072e-05                  |
+-----------------------------------------------------------------------+
+----------------------------------------------------------------+
|  Inner_Iter|    rms[Rho]|     rms[nu]|          CL|          CD|
+----------------------------------------------------------------+
|         302|   -4.344206|   -7.995025|    0.824014|    0.012167|
|         303|   -4.728574|   -8.008719|    0.824014|    0.012167|
|         304|   -4.974366|   -8.012076|    0.824014|    0.012167|
|         305|   -5.054677|   -8.013184|    0.824013|    0.012167|
|         306|   -5.107741|   -8.013375|    0.824013|    0.012167|
|         307|   -5.174744|   -8.013015|    0.824013|    0.012167|
|         308|   -5.255217|   -8.012262|    0.824013|    0.012167|
|         309|   -5.335063|   -8.011224|    0.824012|    0.012167|
|         310|   -5.398205|   -8.009977|    0.824012|    0.012167|
|         311|   -5.439363|   -8.008567|    0.824012|    0.012167|
|         312|   -5.463335|   -8.007035|    0.824012|    0.012166|
|         313|   -5.475731|   -8.005436|    0.824011|    0.012166|
|         314|   -5.480714|   -8.003827|    0.824011|    0.012166|
|         315|   -5.482777|   -8.002249|    0.824011|    0.012166|
|         316|   -5.486382|   -8.000715|    0.824011|    0.012166|
|         317|   -5.494311|   -7.999223|    0.824011|    0.012166|
|         318|   -5.506915|   -7.997774|    0.824010|    0.012166|
|         319|   -5.522565|   -7.996378|    0.824010|    0.012166|
|         320|   -5.538837|   -7.995049|    0.824010|    0.012166|
|         321|   -5.553863|   -7.993808|    0.824010|    0.012166|
|         322|   -5.567131|   -7.992675|    0.824010|    0.012165|
|         323|   -5.579290|   -7.991667|    0.824010|    0.012165|
|         324|   -5.591326|   -7.990805|    0.824010|    0.012165|
|         325|   -5.603845|   -7.990110|    0.824010|    0.012165|
|         326|   -5.616863|   -7.989608|    0.824010|    0.012165|
|         327|   -5.629981|   -7.989326|    0.824010|    0.012165|
|         328|   -5.642650|   -7.989291|    0.824010|    0.012165|
|         329|   -5.654370|   -7.989526|    0.824010|    0.012165|
|         330|   -5.664781|   -7.990051|    0.824010|    0.012164|
|         331|   -5.673720|   -7.990879|    0.824010|    0.012164|
|         332|   -5.681268|   -7.992020|    0.824010|    0.012164|
|         333|   -5.687758|   -7.993474|    0.824011|    0.012164|
|         334|   -5.693712|   -7.995233|    0.824011|    0.012164|
|         335|   -5.699707|   -7.997282|    0.824011|    0.012164|
|         336|   -5.706237|   -7.999602|    0.824011|    0.012164|
|         337|   -5.713606|   -8.002165|    0.824012|    0.012164|
|         338|   -5.721884|   -8.004940|    0.824012|    0.012164|
|         339|   -5.730905|   -8.007894|    0.824012|    0.012164|
|         340|   -5.740298|   -8.010988|    0.824012|    0.012163|
|         341|   -5.749565|   -8.014188|    0.824013|    0.012163|
|         342|   -5.758176|   -8.017456|    0.824013|    0.012163|
|         343|   -5.765705|   -8.020759|    0.824013|    0.012163|
|         344|   -5.771931|   -8.024068|    0.824013|    0.012163|
|         345|   -5.776889|   -8.027354|    0.824013|    0.012163|
|         346|   -5.780842|   -8.030597|    0.824014|    0.012163|
|         347|   -5.784181|   -8.033779|    0.824014|    0.012163|
|         348|   -5.787301|   -8.036889|    0.824014|    0.012163|
|         349|   -5.790503|   -8.039921|    0.824014|    0.012163|
|         350|   -5.793940|   -8.042875|    0.824014|    0.012163|
|         351|   -5.797606|   -8.045756|    0.824014|    0.012163|
|         352|   -5.801372|   -8.048577|    0.824015|    0.012163|
|         353|   -5.805035|   -8.051350|    0.824015|    0.012163|
|         354|   -5.808385|   -8.054096|    0.824015|    0.012163|
|         355|   -5.811251|   -8.056839|    0.824015|    0.012163|
|         356|   -5.813539|   -8.059605|    0.824015|    0.012163|
|         357|   -5.815243|   -8.062422|    0.824015|    0.012163|
|         358|   -5.816428|   -8.065319|    0.824014|    0.012163|
|         359|   -5.817212|   -8.068324|    0.824014|    0.012163|
|         360|   -5.817730|   -8.071464|    0.824014|    0.012163|
|         361|   -5.818111|   -8.074762|    0.824014|    0.012163|
|         362|   -5.818464|   -8.078239|    0.824014|    0.012163|
|         363|   -5.818871|   -8.081912|    0.824014|    0.012163|
|         364|   -5.819389|   -8.085795|    0.824014|    0.012163|
|         365|   -5.820054|   -8.089894|    0.824013|    0.012163|
|         366|   -5.820896|   -8.094214|    0.824013|    0.012163|
|         367|   -5.821936|   -8.098750|    0.824013|    0.012163|
|         368|   -5.823198|   -8.103496|    0.824013|    0.012163|
|         369|   -5.824707|   -8.108437|    0.824012|    0.012163|
|         370|   -5.826487|   -8.113557|    0.824012|    0.012163|
|         371|   -5.828564|   -8.118831|    0.824012|    0.012163|
|         372|   -5.830961|   -8.124234|    0.824012|    0.012163|
|         373|   -5.833699|   -8.129733|    0.824011|    0.012163|
|         374|   -5.836792|   -8.135296|    0.824011|    0.012163|
|         375|   -5.840252|   -8.140885|    0.824011|    0.012163|
|         376|   -5.844086|   -8.146463|    0.824011|    0.012163|
|         377|   -5.848297|   -8.151993|    0.824010|    0.012163|
|         378|   -5.852884|   -8.157437|    0.824010|    0.012163|
|         379|   -5.857845|   -8.162760|    0.824010|    0.012163|
|         380|   -5.863172|   -8.167930|    0.824010|    0.012163|
|         381|   -5.868857|   -8.172919|    0.824010|    0.012163|
|         382|   -5.874886|   -8.177704|    0.824010|    0.012163|
|         383|   -5.881242|   -8.182267|    0.824010|    0.012163|
|         384|   -5.887904|   -8.186598|    0.824010|    0.012163|
|         385|   -5.894849|   -8.190691|    0.824010|    0.012163|
|         386|   -5.902046|   -8.194549|    0.824010|    0.012163|
|         387|   -5.909461|   -8.198181|    0.824010|    0.012163|
|         388|   -5.917056|   -8.201601|    0.824010|    0.012163|
|         389|   -5.924789|   -8.204830|    0.824010|    0.012163|
|         390|   -5.932610|   -8.207891|    0.824010|    0.012163|
|         391|   -5.940469|   -8.210814|    0.824010|    0.012163|
|         392|   -5.948312|   -8.213628|    0.824011|    0.012163|
|         393|   -5.956078|   -8.216364|    0.824011|    0.012163|
|         394|   -5.963708|   -8.219054|    0.824011|    0.012163|
|         395|   -5.971140|   -8.221729|    0.824011|    0.012163|
|         396|   -5.978311|   -8.224419|    0.824011|    0.012163|
|         397|   -5.985159|   -8.227149|    0.824011|    0.012163|
|         398|   -5.991626|   -8.229945|    0.824012|    0.012163|
|         399|   -5.997658|   -8.232825|    0.824012|    0.012163|
|         400|   -6.003206|   -8.235809|    0.824012|    0.012163|
|         401|   -6.008230|   -8.238908|    0.824012|    0.012162|
+-----------------------------------------------------------------------+
|Fixed CL Mode                           |Value                         |
+-----------------------------------------------------------------------+
|Current CL                              |0.824012                      |
|Target CL                               |0.824                         |
|Previous AOA                            |2.78168                       |
|Changed AoA by                          |-6.0062e-05                   |
+-----------------------------------------------------------------------+
+----------------------------------------------------------------+
|  Inner_Iter|    rms[Rho]|     rms[nu]|          CL|          CD|
+----------------------------------------------------------------+
|         402|   -4.414629|   -8.188524|    0.824012|    0.012162|
|         403|   -4.798147|   -8.217575|    0.824013|    0.012162|
|         404|   -5.040331|   -8.229013|    0.824013|    0.012162|
|         405|   -5.118732|   -8.236947|    0.824013|    0.012162|
|         406|   -5.172253|   -8.243713|    0.824013|    0.012162|
|         407|   -5.241183|   -8.249873|    0.824013|    0.012162|
|         408|   -5.325631|   -8.255614|    0.824014|    0.012162|
|         409|   -5.412637|   -8.261050|    0.824014|    0.012162|
|         410|   -5.486035|   -8.266258|    0.824014|    0.012162|
|         411|   -5.538343|   -8.271266|    0.824014|    0.012162|
|         412|   -5.571948|   -8.276105|    0.824014|    0.012162|
|         413|   -5.591089|   -8.280866|    0.824014|    0.012162|
|         414|   -5.599624|   -8.285656|    0.824015|    0.012162|
|         415|   -5.602884|   -8.290569|    0.824015|    0.012162|
|         416|   -5.606728|   -8.295631|    0.824015|    0.012162|
|         417|   -5.615039|   -8.300837|    0.824015|    0.012162|
|         418|   -5.628646|   -8.306177|    0.824015|    0.012162|
|         419|   -5.645873|   -8.311667|    0.824015|    0.012162|
|         420|   -5.663959|   -8.317326|    0.824015|    0.012162|
|         421|   -5.680698|   -8.323169|    0.824015|    0.012162|
|         422|   -5.695476|   -8.329195|    0.824015|    0.012162|
|         423|   -5.709069|   -8.335373|    0.824015|    0.012162|
|         424|   -5.722626|   -8.341662|    0.824015|    0.012162|
|         425|   -5.736781|   -8.348011|    0.824016|    0.012162|
|         426|   -5.751403|   -8.354371|    0.824016|    0.012162|
|         427|   -5.765834|   -8.360702|    0.824016|    0.012162|
|         428|   -5.779276|   -8.366968|    0.824016|    0.012162|
|         429|   -5.791064|   -8.373147|    0.824015|    0.012162|
|         430|   -5.800811|   -8.379221|    0.824015|    0.012162|
|         431|   -5.808458|   -8.385176|    0.824015|    0.012162|
|         432|   -5.814301|   -8.391008|    0.824015|    0.012162|
|         433|   -5.818949|   -8.396713|    0.824015|    0.012162|
|         434|   -5.823193|   -8.402290|    0.824015|    0.012162|
|         435|   -5.827832|   -8.407735|    0.824015|    0.012162|
|         436|   -5.833493|   -8.413041|    0.824015|    0.012162|
|         437|   -5.840537|   -8.418202|    0.824015|    0.012162|
|         438|   -5.849022|   -8.423213|    0.824015|    0.012162|
|         439|   -5.858716|   -8.428070|    0.824015|    0.012162|
|         440|   -5.869150|   -8.432770|    0.824015|    0.012162|
|         441|   -5.879704|   -8.437318|    0.824014|    0.012162|
|         442|   -5.889733|   -8.441720|    0.824014|    0.012162|
|         443|   -5.898723|   -8.445991|    0.824014|    0.012162|
|         444|   -5.906432|   -8.450147|    0.824014|    0.012162|
|         445|   -5.912953|   -8.454209|    0.824014|    0.012162|
|         446|   -5.918674|   -8.458196|    0.824014|    0.012162|
|         447|   -5.924151|   -8.462128|    0.824013|    0.012162|
|         448|   -5.929952|   -8.466021|    0.824013|    0.012162|
|         449|   -5.936521|   -8.469883|    0.824013|    0.012162|
|         450|   -5.944109|   -8.473714|    0.824013|    0.012162|
|         451|   -5.952758|   -8.477532|    0.824013|    0.012162|
|         452|   -5.962325|   -8.481310|    0.824012|    0.012162|
|         453|   -5.972541|   -8.485036|    0.824012|    0.012162|
|         454|   -5.983086|   -8.488693|    0.824012|    0.012162|
|         455|   -5.993656|   -8.492263|    0.824012|    0.012162|
|         456|   -6.004019|   -8.495727|    0.824011|    0.012162|
|         457|   -6.014051|   -8.499069|    0.824011|    0.012162|
|         458|   -6.023736|   -8.502275|    0.824011|    0.012162|
|         459|   -6.033139|   -8.505331|    0.824011|    0.012162|
|         460|   -6.042372|   -8.508233|    0.824010|    0.012163|
|         461|   -6.051552|   -8.510979|    0.824010|    0.012163|
|         462|   -6.060767|   -8.513579|    0.824010|    0.012163|
|         463|   -6.070064|   -8.516053|    0.824009|    0.012163|
|         464|   -6.079440|   -8.518427|    0.824009|    0.012163|
|         465|   -6.088855|   -8.520739|    0.824009|    0.012163|
|         466|   -6.098240|   -8.523035|    0.824008|    0.012163|
|         467|   -6.107518|   -8.525369|    0.824008|    0.012163|
|         468|   -6.116609|   -8.527797|    0.824008|    0.012163|
|         469|   -6.125441|   -8.530384|    0.824007|    0.012163|
|         470|   -6.133955|   -8.533192|    0.824007|    0.012163|
|         471|   -6.142099|   -8.536280|    0.824007|    0.012163|
|         472|   -6.149828|   -8.539703|    0.824006|    0.012163|
|         473|   -6.157102|   -8.543506|    0.824006|    0.012163|
|         474|   -6.163884|   -8.547722|    0.824006|    0.012163|
|         475|   -6.170141|   -8.552370|    0.824005|    0.012163|
|         476|   -6.175847|   -8.557449|    0.824005|    0.012163|
|         477|   -6.180984|   -8.562939|    0.824005|    0.012163|
|         478|   -6.185547|   -8.568798|    0.824005|    0.012163|
|         479|   -6.189548|   -8.574960|    0.824004|    0.012163|
|         480|   -6.193010|   -8.581334|    0.824004|    0.012163|
|         481|   -6.195973|   -8.587807|    0.824004|    0.012163|
|         482|   -6.198489|   -8.594244|    0.824004|    0.012163|
|         483|   -6.200621|   -8.600492|    0.824004|    0.012163|
|         484|   -6.202439|   -8.606391|    0.824004|    0.012163|
|         485|   -6.204017|   -8.611779|    0.824004|    0.012163|
|         486|   -6.205429|   -8.616502|    0.824003|    0.012163|
|         487|   -6.206753|   -8.620432|    0.824003|    0.012163|
|         488|   -6.208061|   -8.623470|    0.824004|    0.012163|
|         489|   -6.209422|   -8.625562|    0.824004|    0.012163|
|         490|   -6.210900|   -8.626700|    0.824004|    0.012163|
|         491|   -6.212555|   -8.626929|    0.824004|    0.012163|
|         492|   -6.214440|   -8.626338|    0.824004|    0.012163|
|         493|   -6.216599|   -8.625056|    0.824004|    0.012163|
|         494|   -6.219073|   -8.623239|    0.824004|    0.012163|
|         495|   -6.221895|   -8.621060|    0.824004|    0.012163|
|         496|   -6.225090|   -8.618697|    0.824005|    0.012163|
|         497|   -6.228679|   -8.616318|    0.824005|    0.012163|
|         498|   -6.232676|   -8.614080|    0.824005|    0.012163|
|         499|   -6.237090|   -8.612116|    0.824006|    0.012163|
|         500|   -6.241922|   -8.610532|    0.824006|    0.012163|
|         501|   -6.247171|   -8.609407|    0.824006|    0.012162|
+-----------------------------------------------------------------------+
|Fixed CL Mode                           |Value                         |
+-----------------------------------------------------------------------+
|Current CL                              |0.824006                      |
|Target CL                               |0.824                         |
|Previous AOA                            |2.78162                       |
|Changed AoA by                          |-2.8991e-05                   |
+-----------------------------------------------------------------------+
+----------------------------------------------------------------+
|  Inner_Iter|    rms[Rho]|     rms[nu]|          CL|          CD|
+----------------------------------------------------------------+
|         502|   -4.730856|   -8.541998|    0.824006|    0.012162|
|         503|   -5.112880|   -8.573057|    0.824007|    0.012162|
|         504|   -5.350782|   -8.583197|    0.824007|    0.012162|
|         505|   -5.427044|   -8.589466|    0.824007|    0.012162|
|         506|   -5.479982|   -8.594680|    0.824008|    0.012162|
|         507|   -5.548386|   -8.599422|    0.824008|    0.012162|
|         508|   -5.632207|   -8.603793|    0.824008|    0.012162|
|         509|   -5.719131|   -8.607784|    0.824009|    0.012162|
|         510|   -5.794017|   -8.611328|    0.824009|    0.012162|
|         511|   -5.849666|   -8.614315|    0.824009|    0.012162|
|         512|   -5.887657|   -8.616652|    0.824010|    0.012162|
|         513|   -5.911125|   -8.618330|    0.824010|    0.012161|
|         514|   -5.923111|   -8.619396|    0.824010|    0.012161|
|         515|   -5.928731|   -8.619882|    0.824011|    0.012161|
|         516|   -5.934178|   -8.619798|    0.824011|    0.012161|
|         517|   -5.943829|   -8.619147|    0.824011|    0.012161|
|         518|   -5.958894|   -8.617967|    0.824011|    0.012161|
|         519|   -5.977891|   -8.616339|    0.824012|    0.012161|
|         520|   -5.998089|   -8.614378|    0.824012|    0.012161|
|         521|   -6.017208|   -8.612197|    0.824012|    0.012161|
|         522|   -6.034546|   -8.609901|    0.824012|    0.012161|
|         523|   -6.050849|   -8.607567|    0.824012|    0.012161|
|         524|   -6.067270|   -8.605259|    0.824012|    0.012161|
|         525|   -6.084411|   -8.603035|    0.824012|    0.012161|
|         526|   -6.102032|   -8.600949|    0.824013|    0.012161|
|         527|   -6.119294|   -8.599050|    0.824013|    0.012161|
|         528|   -6.135195|   -8.597381|    0.824013|    0.012161|
|         529|   -6.148910|   -8.595978|    0.824013|    0.012161|
|         530|   -6.159966|   -8.594861|    0.824013|    0.012161|
|         531|   -6.168313|   -8.594044|    0.824013|    0.012160|
|         532|   -6.174340|   -8.593523|    0.824013|    0.012160|
|         533|   -6.178805|   -8.593282|    0.824013|    0.012160|
|         534|   -6.182663|   -8.593293|    0.824013|    0.012160|
|         535|   -6.186843|   -8.593515|    0.824013|    0.012160|
|         536|   -6.192044|   -8.593900|    0.824012|    0.012160|
|         537|   -6.198631|   -8.594393|    0.824012|    0.012160|
|         538|   -6.206603|   -8.594942|    0.824012|    0.012160|
|         539|   -6.215621|   -8.595496|    0.824012|    0.012160|
|         540|   -6.225079|   -8.596014|    0.824012|    0.012160|
|         541|   -6.234216|   -8.596462|    0.824012|    0.012160|
|         542|   -6.242279|   -8.596822|    0.824012|    0.012160|
|         543|   -6.248718|   -8.597086|    0.824012|    0.012160|
|         544|   -6.253346|   -8.597261|    0.824011|    0.012160|
|         545|   -6.256387|   -8.597365|    0.824011|    0.012160|
|         546|   -6.258391|   -8.597427|    0.824011|    0.012160|
|         547|   -6.260061|   -8.597475|    0.824011|    0.012160|
|         548|   -6.262059|   -8.597561|    0.824011|    0.012160|
|         549|   -6.264870|   -8.597722|    0.824011|    0.012160|
|         550|   -6.268744|   -8.597990|    0.824011|    0.012160|
|         551|   -6.273697|   -8.598395|    0.824010|    0.012160|
|         552|   -6.279559|   -8.598959|    0.824010|    0.012160|
|         553|   -6.286053|   -8.599698|    0.824010|    0.012160|
|         554|   -6.292868|   -8.600619|    0.824010|    0.012160|
|         555|   -6.299737|   -8.601718|    0.824010|    0.012161|
|         556|   -6.306484|   -8.602983|    0.824009|    0.012161|
|         557|   -6.313043|   -8.604390|    0.824009|    0.012161|
|         558|   -6.319457|   -8.605909|    0.824009|    0.012161|
|         559|   -6.325839|   -8.607503|    0.824009|    0.012161|
|         560|   -6.332338|   -8.609131|    0.824008|    0.012161|
|         561|   -6.339100|   -8.610751|    0.824008|    0.012161|
|         562|   -6.346241|   -8.612324|    0.824008|    0.012161|
|         563|   -6.353836|   -8.613814|    0.824008|    0.012161|
|         564|   -6.361918|   -8.615197|    0.824007|    0.012161|
|         565|   -6.370486|   -8.616457|    0.824007|    0.012161|
|         566|   -6.379520|   -8.617589|    0.824007|    0.012161|
|         567|   -6.388988|   -8.618603|    0.824007|    0.012161|
|         568|   -6.398856|   -8.619520|    0.824006|    0.012161|
|         569|   -6.409093|   -8.620374|    0.824006|    0.012161|
|         570|   -6.419670|   -8.621208|    0.824006|    0.012162|
|         571|   -6.430556|   -8.622071|    0.824005|    0.012162|
|         572|   -6.441716|   -8.623016|    0.824005|    0.012162|
|         573|   -6.453102|   -8.624096|    0.824005|    0.012162|
|         574|   -6.464652|   -8.625361|    0.824005|    0.012162|
|         575|   -6.476289|   -8.626853|    0.824004|    0.012162|
|         576|   -6.487917|   -8.628608|    0.824004|    0.012162|
|         577|   -6.499427|   -8.630647|    0.824004|    0.012162|
|         578|   -6.510698|   -8.632980|    0.824003|    0.012162|
|         579|   -6.521599|   -8.635601|    0.824003|    0.012162|
|         580|   -6.532000|   -8.638489|    0.824003|    0.012162|
|         581|   -6.541772|   -8.641610|    0.824003|    0.012162|
|         582|   -6.550793|   -8.644910|    0.824002|    0.012162|
|         583|   -6.558961|   -8.648328|    0.824002|    0.012163|
|         584|   -6.566192|   -8.651788|    0.824002|    0.012163|
|         585|   -6.572428|   -8.655209|    0.824002|    0.012163|
|         586|   -6.577643|   -8.658504|    0.824002|    0.012163|
|         587|   -6.581841|   -8.661589|    0.824001|    0.012163|
|         588|   -6.585058|   -8.664385|    0.824001|    0.012163|
|         589|   -6.587358|   -8.666824|    0.824001|    0.012163|
|         590|   -6.588830|   -8.668854|    0.824001|    0.012163|
|         591|   -6.589583|   -8.670441|    0.824001|    0.012163|
|         592|   -6.589737|   -8.671571|    0.824001|    0.012163|
|         593|   -6.589419|   -8.672255|    0.824001|    0.012163|
|         594|   -6.588757|   -8.672523|    0.824001|    0.012163|
|         595|   -6.587876|   -8.672421|    0.824001|    0.012163|
|         596|   -6.586893|   -8.672012|    0.824001|    0.012163|
|         597|   -6.585916|   -8.671367|    0.824001|    0.012163|
|         598|   -6.585041|   -8.670561|    0.824001|    0.012163|
|         599|   -6.584355|   -8.669669|    0.824001|    0.012163|
|         600|   -6.583932|   -8.668759|    0.824001|    0.012163|
|         601|   -6.583834|   -8.667890|    0.824001|    0.012163|
+-----------------------------------------------------------------------+
|Fixed CL Mode                           |Value                         |
+-----------------------------------------------------------------------+
|Current CL                              |0.824001                      |
|Target CL                               |0.824                         |
|Previous AOA                            |2.78159                       |
|Changed AoA by                          |-2.99519e-06                  |
+-----------------------------------------------------------------------+
+----------------------------------------------------------------+
|  Inner_Iter|    rms[Rho]|     rms[nu]|          CL|          CD|
+----------------------------------------------------------------+
|         602|   -5.712968|   -8.665851|    0.824001|    0.012163|
|         603|   -6.070789|   -8.665743|    0.824001|    0.012163|
|         604|   -6.253450|   -8.665392|    0.824001|    0.012163|
|         605|   -6.301235|   -8.665120|    0.824001|    0.012163|
|         606|   -6.336537|   -8.664954|    0.824001|    0.012163|
|         607|   -6.381241|   -8.664872|    0.824001|    0.012163|
|         608|   -6.431232|   -8.664837|    0.824001|    0.012163|
|         609|   -6.477945|   -8.664801|    0.824001|    0.012163|
|         610|   -6.515820|   -8.664708|    0.824001|    0.012163|
|         611|   -6.544732|   -8.664505|    0.824001|    0.012163|
|         612|   -6.566838|   -8.664135|    0.824001|    0.012163|
|         613|   -6.583634|   -8.663554|    0.824001|    0.012163|
|         614|   -6.596027|   -8.662721|    0.824002|    0.012163|
|         615|   -6.605310|   -8.661613|    0.824002|    0.012163|
|         616|   -6.613228|   -8.660216|    0.824002|    0.012163|
|         617|   -6.621301|   -8.658533|    0.824002|    0.012163|
|         618|   -6.630301|   -8.656584|    0.824002|    0.012163|
|         619|   -6.640262|   -8.654403|    0.824002|    0.012163|
|         620|   -6.650857|   -8.652035|    0.824002|    0.012163|
|         621|   -6.661796|   -8.649537|    0.824002|    0.012163|
|         622|   -6.673007|   -8.646972|    0.824002|    0.012163|
|         623|   -6.684542|   -8.644406|    0.824002|    0.012162|
|         624|   -6.696392|   -8.641906|    0.824002|    0.012162|
|         625|   -6.708355|   -8.639534|    0.824002|    0.012162|
|         626|   -6.720064|   -8.637353|    0.824002|    0.012162|
|         627|   -6.731113|   -8.635415|    0.824002|    0.012162|
|         628|   -6.741192|   -8.633766|    0.824002|    0.012162|
|         629|   -6.750166|   -8.632445|    0.824002|    0.012162|
|         630|   -6.758075|   -8.631479|    0.824002|    0.012162|
|         631|   -6.765092|   -8.630887|    0.824002|    0.012162|
|         632|   -6.771461|   -8.630680|    0.824002|    0.012162|
|         633|   -6.777443|   -8.630857|    0.824002|    0.012162|
|         634|   -6.783264|   -8.631410|    0.824002|    0.012162|
|         635|   -6.789068|   -8.632323|    0.824002|    0.012162|
|         636|   -6.794901|   -8.633573|    0.824002|    0.012162|
|         637|   -6.800704|   -8.635134|    0.824002|    0.012162|
|         638|   -6.806334|   -8.636971|    0.824002|    0.012162|
|         639|   -6.811603|   -8.639050|    0.824002|    0.012162|
|         640|   -6.816308|   -8.641335|    0.824002|    0.012162|
|         641|   -6.820278|   -8.643790|    0.824002|    0.012161|
|         642|   -6.823407|   -8.646379|    0.824002|    0.012161|
|         643|   -6.825668|   -8.649071|    0.824002|    0.012161|
|         644|   -6.827125|   -8.651838|    0.824002|    0.012161|
|         645|   -6.827911|   -8.654656|    0.824002|    0.012161|
|         646|   -6.828205|   -8.657508|    0.824002|    0.012161|
|         647|   -6.828191|   -8.660381|    0.824002|    0.012161|
|         648|   -6.828033|   -8.663268|    0.824002|    0.012161|
|         649|   -6.827849|   -8.666169|    0.824002|    0.012161|
|         650|   -6.827709|   -8.669085|    0.824002|    0.012161|
|         651|   -6.827638|   -8.672023|    0.824002|    0.012161|
|         652|   -6.827630|   -8.674993|    0.824003|    0.012161|
|         653|   -6.827664|   -8.678006|    0.824003|    0.012161|
|         654|   -6.827718|   -8.681073|    0.824003|    0.012161|
|         655|   -6.827778|   -8.684205|    0.824003|    0.012161|
|         656|   -6.827847|   -8.687412|    0.824003|    0.012161|
|         657|   -6.827942|   -8.690701|    0.824003|    0.012161|
|         658|   -6.828091|   -8.694076|    0.824003|    0.012161|
|         659|   -6.828328|   -8.697540|    0.824003|    0.012161|
|         660|   -6.828687|   -8.701091|    0.824003|    0.012161|
|         661|   -6.829198|   -8.704724|    0.824003|    0.012161|
|         662|   -6.829887|   -8.708432|    0.824003|    0.012161|
|         663|   -6.830773|   -8.712208|    0.824003|    0.012161|
|         664|   -6.831870|   -8.716042|    0.824003|    0.012161|
|         665|   -6.833187|   -8.719924|    0.824003|    0.012161|
|         666|   -6.834732|   -8.723846|    0.824003|    0.012161|
|         667|   -6.836513|   -8.727799|    0.824003|    0.012161|
|         668|   -6.838537|   -8.731780|    0.824003|    0.012161|
|         669|   -6.840810|   -8.735786|    0.824003|    0.012161|
|         670|   -6.843339|   -8.739818|    0.824003|    0.012161|
|         671|   -6.846127|   -8.743881|    0.824003|    0.012161|
|         672|   -6.849178|   -8.747984|    0.824003|    0.012161|
|         673|   -6.852490|   -8.752137|    0.824003|    0.012161|
|         674|   -6.856058|   -8.756355|    0.824003|    0.012161|
|         675|   -6.859875|   -8.760651|    0.824003|    0.012161|
|         676|   -6.863928|   -8.765042|    0.824003|    0.012161|
|         677|   -6.868200|   -8.769543|    0.824003|    0.012161|
|         678|   -6.872671|   -8.774168|    0.824003|    0.012161|
|         679|   -6.877315|   -8.778928|    0.824003|    0.012162|
|         680|   -6.882105|   -8.783831|    0.824003|    0.012162|
|         681|   -6.887010|   -8.788878|    0.824003|    0.012162|
|         682|   -6.891995|   -8.794066|    0.824003|    0.012162|
|         683|   -6.897023|   -8.799388|    0.824003|    0.012162|
|         684|   -6.902058|   -8.804827|    0.824003|    0.012162|
|         685|   -6.907060|   -8.810362|    0.824003|    0.012162|
|         686|   -6.911989|   -8.815964|    0.824003|    0.012162|
|         687|   -6.916810|   -8.821600|    0.824003|    0.012162|
|         688|   -6.921484|   -8.827231|    0.824003|    0.012162|
|         689|   -6.925980|   -8.832814|    0.824003|    0.012162|
|         690|   -6.930268|   -8.838304|    0.824003|    0.012162|
|         691|   -6.934323|   -8.843658|    0.824003|    0.012162|
|         692|   -6.938125|   -8.848831|    0.824003|    0.012162|
|         693|   -6.941662|   -8.853783|    0.824003|    0.012162|
|         694|   -6.944925|   -8.858480|    0.824003|    0.012162|
|         695|   -6.947913|   -8.862894|    0.824003|    0.012162|
|         696|   -6.950629|   -8.867005|    0.824003|    0.012162|
|         697|   -6.953084|   -8.870802|    0.824002|    0.012162|
|         698|   -6.955289|   -8.874284|    0.824002|    0.012162|
|         699|   -6.957264|   -8.877460|    0.824002|    0.012162|
|         700|   -6.959029|   -8.880344|    0.824002|    0.012162|
|         701|   -6.960604|   -8.882960|    0.824002|    0.012162|
+-----------------------------------------------------------------------+
|Fixed CL Mode                           |Value                         |
+-----------------------------------------------------------------------+
|Current CL                              |0.824002                      |
|Target CL                               |0.824                         |
|Previous AOA                            |2.78159                       |
|Changed AoA by                          |-1.1784e-05                   |
+-----------------------------------------------------------------------+
+----------------------------------------------------------------+
|  Inner_Iter|    rms[Rho]|     rms[nu]|          CL|          CD|
+----------------------------------------------------------------+
|         702|   -5.122235|   -8.843880|    0.824002|    0.012162|
|         703|   -5.507437|   -8.865947|    0.824002|    0.012162|
|         704|   -5.752169|   -8.873899|    0.824002|    0.012162|
|         705|   -5.830011|   -8.878993|    0.824002|    0.012162|
|         706|   -5.882471|   -8.883066|    0.824002|    0.012162|
|         707|   -5.951118|   -8.886546|    0.824002|    0.012162|
|         708|   -6.036391|   -8.889572|    0.824002|    0.012162|
|         709|   -6.125649|   -8.892235|    0.824002|    0.012162|
|         710|   -6.202673|   -8.894597|    0.824002|    0.012162|
|         711|   -6.259218|   -8.896698|    0.824002|    0.012163|
|         712|   -6.296732|   -8.898580|    0.824002|    0.012163|
|         713|   -6.318798|   -8.900324|    0.824002|    0.012163|
|         714|   -6.329049|   -8.902028|    0.824002|    0.012163|
|         715|   -6.333185|   -8.903764|    0.824002|    0.012163|
|         716|   -6.337754|   -8.905563|    0.824002|    0.012163|
|         717|   -6.347200|   -8.907428|    0.824002|    0.012163|
|         718|   -6.362600|   -8.909361|    0.824002|    0.012163|
|         719|   -6.382225|   -8.911369|    0.824002|    0.012163|
|         720|   -6.403030|   -8.913469|    0.824002|    0.012163|
|         721|   -6.422468|   -8.915672|    0.824002|    0.012163|
|         722|   -6.439735|   -8.917974|    0.824001|    0.012163|
|         723|   -6.455665|   -8.920364|    0.824001|    0.012163|
|         724|   -6.471589|   -8.922821|    0.824001|    0.012163|
|         725|   -6.488282|   -8.925328|    0.824001|    0.012163|
|         726|   -6.505612|   -8.927873|    0.824001|    0.012163|
|         727|   -6.522794|   -8.930452|    0.824001|    0.012163|
|         728|   -6.538822|   -8.933064|    0.824001|    0.012163|
|         729|   -6.552827|   -8.935714|    0.824001|    0.012163|
|         730|   -6.564265|   -8.938409|    0.824001|    0.012162|
|         731|   -6.573026|   -8.941158|    0.824001|    0.012162|
|         732|   -6.579477|   -8.943969|    0.824001|    0.012162|
|         733|   -6.584408|   -8.946847|    0.824001|    0.012162|
|         734|   -6.588864|   -8.949796|    0.824001|    0.012162|
|         735|   -6.593887|   -8.952813|    0.824001|    0.012162|
|         736|   -6.600301|   -8.955894|    0.824001|    0.012162|
|         737|   -6.608579|   -8.959027|    0.824001|    0.012162|
|         738|   -6.618799|   -8.962200|    0.824001|    0.012162|
|         739|   -6.630656|   -8.965399|    0.824001|    0.012162|
|         740|   -6.643506|   -8.968605|    0.824001|    0.012162|
|         741|   -6.656463|   -8.971807|    0.824001|    0.012162|
|         742|   -6.668562|   -8.974988|    0.824001|    0.012162|
|         743|   -6.678991|   -8.978134|    0.824001|    0.012162|
|         744|   -6.687315|   -8.981234|    0.824001|    0.012162|
|         745|   -6.693600|   -8.984275|    0.824001|    0.012162|
|         746|   -6.698368|   -8.987247|    0.824000|    0.012162|
|         747|   -6.702397|   -8.990139|    0.824000|    0.012162|
|         748|   -6.706480|   -8.992939|    0.824000|    0.012162|
|         749|   -6.711225|   -8.995634|    0.824000|    0.012162|
|         750|   -6.716956|   -8.998213|    0.824000|    0.012162|
|         751|   -6.723697|   -9.000663|    0.824000|    0.012162|
|         752|   -6.731222|   -9.002972|    0.824000|    0.012162|
|         753|   -6.739140|   -9.005130|    0.824000|    0.012162|
|         754|   -6.746996|   -9.007132|    0.824000|    0.012162|
|         755|   -6.754380|   -9.008972|    0.824000|    0.012162|
|         756|   -6.760998|   -9.010652|    0.824000|    0.012162|
|         757|   -6.766717|   -9.012177|    0.824000|    0.012162|
|         758|   -6.771554|   -9.013560|    0.824000|    0.012162|
|         759|   -6.775644|   -9.014819|    0.824000|    0.012162|
|         760|   -6.779171|   -9.015977|    0.824000|    0.012162|
|         761|   -6.782319|   -9.017063|    0.824000|    0.012162|
|         762|   -6.785236|   -9.018113|    0.824000|    0.012162|
|         763|   -6.788013|   -9.019170|    0.824000|    0.012162|
|         764|   -6.790688|   -9.020274|    0.823999|    0.012162|
|         765|   -6.793262|   -9.021472|    0.823999|    0.012162|
|         766|   -6.795716|   -9.022812|    0.823999|    0.012162|
|         767|   -6.798026|   -9.024342|    0.823999|    0.012162|
|         768|   -6.800176|   -9.026106|    0.823999|    0.012162|
|         769|   -6.802162|   -9.028145|    0.823999|    0.012162|
|         770|   -6.803990|   -9.030495|    0.823999|    0.012162|
|         771|   -6.805676|   -9.033186|    0.823999|    0.012162|
|         772|   -6.807236|   -9.036236|    0.823999|    0.012162|
|         773|   -6.808686|   -9.039658|    0.823999|    0.012162|
|         774|   -6.810039|   -9.043451|    0.823999|    0.012162|
|         775|   -6.811304|   -9.047608|    0.823999|    0.012162|
|         776|   -6.812487|   -9.052109|    0.823999|    0.012162|
|         777|   -6.813590|   -9.056922|    0.823999|    0.012162|
|         778|   -6.814617|   -9.062009|    0.823999|    0.012162|
|         779|   -6.815572|   -9.067322|    0.823998|    0.012162|
|         780|   -6.816462|   -9.072806|    0.823998|    0.012162|
|         781|   -6.817292|   -9.078400|    0.823998|    0.012162|
|         782|   -6.818073|   -9.084043|    0.823998|    0.012162|
|         783|   -6.818815|   -9.089671|    0.823998|    0.012162|
|         784|   -6.819530|   -9.095226|    0.823998|    0.012162|
|         785|   -6.820230|   -9.100654|    0.823998|    0.012162|
|         786|   -6.820927|   -9.105908|    0.823998|    0.012162|
|         787|   -6.821636|   -9.110955|    0.823998|    0.012162|
|         788|   -6.822369|   -9.115770|    0.823998|    0.012162|
|         789|   -6.823140|   -9.120344|    0.823998|    0.012162|
|         790|   -6.823962|   -9.124679|    0.823998|    0.012162|
|         791|   -6.824847|   -9.128790|    0.823999|    0.012162|
|         792|   -6.825806|   -9.132699|    0.823999|    0.012162|
|         793|   -6.826849|   -9.136438|    0.823999|    0.012162|
|         794|   -6.827984|   -9.140045|    0.823999|    0.012162|
|         795|   -6.829216|   -9.143556|    0.823999|    0.012162|
|         796|   -6.830549|   -9.147009|    0.823999|    0.012162|
|         797|   -6.831981|   -9.150436|    0.823999|    0.012162|
|         798|   -6.833512|   -9.153863|    0.823999|    0.012162|
|         799|   -6.835134|   -9.157308|    0.823999|    0.012162|
|         800|   -6.836840|   -9.160780|    0.823999|    0.012162|
|         801|   -6.838616|   -9.164274|    0.823999|    0.012162|
+-----------------------------------------------------------------------+
|Fixed CL Mode                           |Value                         |
+-----------------------------------------------------------------------+
|Current CL                              |0.823999                      |
|Target CL                               |0.824                         |
|Previous AOA                            |2.78158                       |
|Changed AoA by                          |5.14591e-06                   |
+-----------------------------------------------------------------------+
+----------------------------------------------------------------+
|  Inner_Iter|    rms[Rho]|     rms[nu]|          CL|          CD|
+----------------------------------------------------------------+
|         802|   -5.481371|   -9.137388|    0.823999|    0.012162|
|         803|   -5.863819|   -9.155506|    0.823999|    0.012162|
|         804|   -6.104186|   -9.163328|    0.823999|    0.012162|
|         805|   -6.181751|   -9.168974|    0.823999|    0.012162|
|         806|   -6.234126|   -9.173722|    0.823999|    0.012162|
|         807|   -6.300586|   -9.177865|    0.823999|    0.012162|
|         808|   -6.380341|   -9.181489|    0.823999|    0.012162|
|         809|   -6.459752|   -9.184625|    0.823999|    0.012162|
|         810|   -6.523381|   -9.187279|    0.824000|    0.012162|
|         811|   -6.565824|   -9.189420|    0.824000|    0.012162|
|         812|   -6.591136|   -9.191028|    0.824000|    0.012162|
|         813|   -6.604391|   -9.192122|    0.824000|    0.012162|
|         814|   -6.609574|   -9.192747|    0.824000|    0.012162|
|         815|   -6.611170|   -9.192953|    0.824000|    0.012162|
|         816|   -6.613664|   -9.192781|    0.824000|    0.012162|
|         817|   -6.619838|   -9.192272|    0.824000|    0.012162|
|         818|   -6.630036|   -9.191485|    0.824000|    0.012162|
|         819|   -6.642665|   -9.190496|    0.824000|    0.012162|
|         820|   -6.655406|   -9.189400|    0.824000|    0.012162|
|         821|   -6.666531|   -9.188287|    0.824000|    0.012162|
|         822|   -6.675601|   -9.187239|    0.824000|    0.012162|
|         823|   -6.683222|   -9.186333|    0.824000|    0.012162|
|         824|   -6.690258|   -9.185634|    0.824000|    0.012162|
|         825|   -6.697227|   -9.185198|    0.824000|    0.012162|
|         826|   -6.704155|   -9.185077|    0.824000|    0.012163|
|         827|   -6.710767|   -9.185318|    0.824000|    0.012163|
|         828|   -6.716722|   -9.185956|    0.824000|    0.012163|
|         829|   -6.721758|   -9.187020|    0.824000|    0.012163|
|         830|   -6.725732|   -9.188529|    0.824000|    0.012163|
|         831|   -6.728639|   -9.190490|    0.824000|    0.012163|
|         832|   -6.730614|   -9.192903|    0.824000|    0.012163|
|         833|   -6.731931|   -9.195759|    0.824000|    0.012163|
|         834|   -6.732952|   -9.199037|    0.824000|    0.012163|
|         835|   -6.734052|   -9.202707|    0.824000|    0.012163|
|         836|   -6.735537|   -9.206731|    0.824000|    0.012163|
|         837|   -6.737589|   -9.211061|    0.824000|    0.012163|
|         838|   -6.740251|   -9.215642|    0.824000|    0.012163|
|         839|   -6.743438|   -9.220409|    0.824000|    0.012163|
|         840|   -6.746963|   -9.225296|    0.823999|    0.012163|
|         841|   -6.750594|   -9.230230|    0.823999|    0.012163|
|         842|   -6.754103|   -9.235139|    0.823999|    0.012163|
|         843|   -6.757326|   -9.239950|    0.823999|    0.012163|
|         844|   -6.760208|   -9.244598|    0.823999|    0.012163|
|         845|   -6.762808|   -9.249021|    0.823999|    0.012163|
|         846|   -6.765281|   -9.253168|    0.823999|    0.012163|
|         847|   -6.767831|   -9.257001|    0.823999|    0.012163|
|         848|   -6.770656|   -9.260493|    0.823999|    0.012162|
|         849|   -6.773904|   -9.263632|    0.823999|    0.012162|
|         850|   -6.777652|   -9.266427|    0.823999|    0.012162|
|         851|   -6.781900|   -9.268899|    0.823999|    0.012162|
|         852|   -6.786586|   -9.271083|    0.823999|    0.012162|
|         853|   -6.791609|   -9.273026|    0.823999|    0.012162|
|         854|   -6.796859|   -9.274790|    0.823999|    0.012162|
|         855|   -6.802237|   -9.276441|    0.823999|    0.012162|
|         856|   -6.807672|   -9.278053|    0.823999|    0.012162|
|         857|   -6.813128|   -9.279697|    0.823999|    0.012162|
|         858|   -6.818598|   -9.281445|    0.823999|    0.012162|
|         859|   -6.824095|   -9.283363|    0.823999|    0.012162|
|         860|   -6.829644|   -9.285510|    0.823999|    0.012162|
|         861|   -6.835262|   -9.287934|    0.823999|    0.012162|
|         862|   -6.840957|   -9.290673|    0.823999|    0.012162|
|         863|   -6.846721|   -9.293749|    0.823999|    0.012162|
|         864|   -6.852532|   -9.297172|    0.823999|    0.012162|
|         865|   -6.858352|   -9.300934|    0.823999|    0.012162|
|         866|   -6.864136|   -9.305009|    0.823999|    0.012162|
|         867|   -6.869834|   -9.309355|    0.824000|    0.012162|
|         868|   -6.875396|   -9.313911|    0.824000|    0.012162|
|         869|   -6.880770|   -9.318599|    0.824000|    0.012162|
|         870|   -6.885908|   -9.323326|    0.824000|    0.012162|
|         871|   -6.890764|   -9.327983|    0.824000|    0.012162|
|         872|   -6.895292|   -9.332452|    0.824000|    0.012162|
|         873|   -6.899449|   -9.336610|    0.824000|    0.012162|
|         874|   -6.903196|   -9.340334|    0.824000|    0.012162|
|         875|   -6.906496|   -9.343509|    0.824000|    0.012162|
|         876|   -6.909320|   -9.346035|    0.824000|    0.012162|
|         877|   -6.911643|   -9.347835|    0.824000|    0.012162|
|         878|   -6.913451|   -9.348859|    0.824000|    0.012162|
|         879|   -6.914735|   -9.349088|    0.824000|    0.012162|
|         880|   -6.915500|   -9.348540|    0.824000|    0.012162|
|         881|   -6.915758|   -9.347263|    0.824000|    0.012162|
|         882|   -6.915531|   -9.345335|    0.824000|    0.012162|
|         883|   -6.914849|   -9.342857|    0.824000|    0.012162|
|         884|   -6.913749|   -9.339947|    0.824000|    0.012162|
|         885|   -6.912274|   -9.336731|    0.824000|    0.012162|
|         886|   -6.910474|   -9.333336|    0.824000|    0.012162|
|         887|   -6.908399|   -9.329887|    0.824000|    0.012162|
|         888|   -6.906102|   -9.326499|    0.824000|    0.012162|
|         889|   -6.903638|   -9.323271|    0.824000|    0.012162|
|         890|   -6.901060|   -9.320291|    0.824001|    0.012162|
|         891|   -6.898419|   -9.317627|    0.824001|    0.012162|
|         892|   -6.895766|   -9.315332|    0.824001|    0.012162|
|         893|   -6.893148|   -9.313441|    0.824001|    0.012162|
|         894|   -6.890607|   -9.311971|    0.824001|    0.012162|
|         895|   -6.888185|   -9.310928|    0.824001|    0.012162|
|         896|   -6.885917|   -9.310302|    0.824001|    0.012162|
|         897|   -6.883835|   -9.310070|    0.824001|    0.012162|
|         898|   -6.881968|   -9.310200|    0.824001|    0.012162|
|         899|   -6.880341|   -9.310651|    0.824001|    0.012162|
|         900|   -6.878977|   -9.311378|    0.824001|    0.012162|
|         901|   -6.877893|   -9.312327|    0.824001|    0.012162|
+-----------------------------------------------------------------------+
|Fixed CL Mode                           |Value                         |
+-----------------------------------------------------------------------+
|Current CL                              |0.824001                      |
|Target CL                               |0.824                         |
|Previous AOA                            |2.78158                       |
[...]
|        5298|   -6.047137|   -7.939941|    0.824236|    0.012167|
|        5299|   -6.053784|   -7.944620|    0.824236|    0.012166|
|        5300|   -6.060086|   -7.949320|    0.824236|    0.012166|
|        5301|   -6.066007|   -7.954054|    0.824236|    0.012166|
|        5302|   -6.071517|   -7.958833|    0.824237|    0.012166|
|        5303|   -6.076598|   -7.963663|    0.824237|    0.012166|
|        5304|   -6.081241|   -7.968550|    0.824237|    0.012166|
|        5305|   -6.085448|   -7.973496|    0.824237|    0.012166|
|        5306|   -6.089233|   -7.978502|    0.824237|    0.012166|
|        5307|   -6.092618|   -7.983568|    0.824237|    0.012166|
|        5308|   -6.095632|   -7.988694|    0.824237|    0.012166|
|        5309|   -6.098315|   -7.993879|    0.824237|    0.012166|
|        5310|   -6.100710|   -7.999121|    0.824237|    0.012166|
|        5311|   -6.102865|   -8.004422|    0.824237|    0.012166|
|        5312|   -6.104830|   -8.009783|    0.824237|    0.012166|
|        5313|   -6.106657|   -8.015204|    0.824238|    0.012166|
|        5314|   -6.108396|   -8.020691|    0.824238|    0.012166|
|        5315|   -6.110096|   -8.026247|    0.824238|    0.012166|
|        5316|   -6.111801|   -8.031878|    0.824238|    0.012166|
|        5317|   -6.113557|   -8.037590|    0.824238|    0.012166|
|        5318|   -6.115401|   -8.043389|    0.824238|    0.012166|
|        5319|   -6.117366|   -8.049285|    0.824238|    0.012166|
|        5320|   -6.119477|   -8.055283|    0.824238|    0.012166|
|        5321|   -6.121755|   -8.061392|    0.824238|    0.012166|
|        5322|   -6.124215|   -8.067619|    0.824239|    0.012166|
|        5323|   -6.126865|   -8.073968|    0.824239|    0.012167|
|        5324|   -6.129707|   -8.080445|    0.824239|    0.012167|
|        5325|   -6.132736|   -8.087051|    0.824239|    0.012167|
|        5326|   -6.135942|   -8.093787|    0.824239|    0.012167|
|        5327|   -6.139306|   -8.100650|    0.824239|    0.012167|
|        5328|   -6.142807|   -8.107636|    0.824239|    0.012167|
|        5329|   -6.146417|   -8.114738|    0.824239|    0.012167|
|        5330|   -6.150104|   -8.121948|    0.824240|    0.012167|
|        5331|   -6.153831|   -8.129254|    0.824240|    0.012167|
|        5332|   -6.157561|   -8.136646|    0.824240|    0.012167|
|        5333|   -6.161253|   -8.144110|    0.824240|    0.012167|
|        5334|   -6.164866|   -8.151632|    0.824240|    0.012167|
|        5335|   -6.168362|   -8.159197|    0.824240|    0.012168|
|        5336|   -6.171704|   -8.166789|    0.824240|    0.012168|
|        5337|   -6.174859|   -8.174393|    0.824240|    0.012168|
|        5338|   -6.177797|   -8.181994|    0.824240|    0.012168|
|        5339|   -6.180498|   -8.189578|    0.824241|    0.012168|
|        5340|   -6.182946|   -8.197130|    0.824241|    0.012168|
|        5341|   -6.185136|   -8.204638|    0.824241|    0.012168|
|        5342|   -6.187067|   -8.212091|    0.824241|    0.012168|
|        5343|   -6.188750|   -8.219477|    0.824241|    0.012168|
|        5344|   -6.190203|   -8.226790|    0.824241|    0.012168|
|        5345|   -6.191449|   -8.234021|    0.824241|    0.012168|
|        5346|   -6.192519|   -8.241166|    0.824241|    0.012168|
|        5347|   -6.193451|   -8.248220|    0.824241|    0.012168|
|        5348|   -6.194283|   -8.255181|    0.824241|    0.012169|
|        5349|   -6.195059|   -8.262047|    0.824241|    0.012169|
|        5350|   -6.195823|   -8.268817|    0.824241|    0.012169|
|        5351|   -6.196625|   -8.275490|    0.824241|    0.012169|
|        5352|   -6.197503|   -8.282068|    0.824241|    0.012169|
|        5353|   -6.198498|   -8.288551|    0.824241|    0.012169|
|        5354|   -6.199651|   -8.294939|    0.824241|    0.012169|
|        5355|   -6.200997|   -8.301234|    0.824241|    0.012169|
|        5356|   -6.202567|   -8.307434|    0.824241|    0.012169|
|        5357|   -6.204391|   -8.313538|    0.824241|    0.012169|
|        5358|   -6.206492|   -8.319545|    0.824241|    0.012169|
|        5359|   -6.208888|   -8.325451|    0.824241|    0.012169|
|        5360|   -6.211594|   -8.331253|    0.824241|    0.012169|
|        5361|   -6.214621|   -8.336946|    0.824241|    0.012169|
|        5362|   -6.217971|   -8.342528|    0.824241|    0.012169|
|        5363|   -6.221646|   -8.347993|    0.824241|    0.012169|
|        5364|   -6.225639|   -8.353337|    0.824241|    0.012169|
|        5365|   -6.229940|   -8.358557|    0.824241|    0.012169|
|        5366|   -6.234534|   -8.363648|    0.824241|    0.012169|
|        5367|   -6.239400|   -8.368607|    0.824241|    0.012169|
|        5368|   -6.244515|   -8.373431|    0.824241|    0.012169|
|        5369|   -6.249848|   -8.378117|    0.824241|    0.012169|
|        5370|   -6.255365|   -8.382664|    0.824241|    0.012169|
|        5371|   -6.261030|   -8.387073|    0.824241|    0.012169|
|        5372|   -6.266799|   -8.391344|    0.824240|    0.012169|
|        5373|   -6.272630|   -8.395482|    0.824240|    0.012169|
|        5374|   -6.278476|   -8.399490|    0.824240|    0.012168|
|        5375|   -6.284288|   -8.403376|    0.824240|    0.012168|
|        5376|   -6.290021|   -8.407149|    0.824240|    0.012168|
|        5377|   -6.295626|   -8.410819|    0.824240|    0.012168|
|        5378|   -6.301053|   -8.414400|    0.824240|    0.012168|
|        5379|   -6.306257|   -8.417905|    0.824240|    0.012168|
|        5380|   -6.311199|   -8.421347|    0.824240|    0.012168|
|        5381|   -6.315843|   -8.424740|    0.824240|    0.012168|
|        5382|   -6.320158|   -8.428098|    0.824240|    0.012168|
|        5383|   -6.324120|   -8.431438|    0.824240|    0.012168|
|        5384|   -6.327714|   -8.434775|    0.824240|    0.012168|
|        5385|   -6.330930|   -8.438123|    0.824240|    0.012168|
|        5386|   -6.333768|   -8.441495|    0.824240|    0.012168|
|        5387|   -6.336231|   -8.444903|    0.824239|    0.012167|
|        5388|   -6.338331|   -8.448357|    0.824239|    0.012167|
|        5389|   -6.340083|   -8.451866|    0.824239|    0.012167|
|        5390|   -6.341508|   -8.455433|    0.824239|    0.012167|
|        5391|   -6.342630|   -8.459060|    0.824240|    0.012167|
|        5392|   -6.343473|   -8.462747|    0.824240|    0.012167|
|        5393|   -6.344065|   -8.466487|    0.824240|    0.012167|
|        5394|   -6.344432|   -8.470272|    0.824240|    0.012167|
|        5395|   -6.344600|   -8.474092|    0.824240|    0.012167|
|        5396|   -6.344593|   -8.477929|    0.824240|    0.012167|
|        5397|   -6.344436|   -8.481769|    0.824240|    0.012166|
|        5398|   -6.344148|   -8.485589|    0.824240|    0.012166|
|        5399|   -6.343748|   -8.489370|    0.824240|    0.012166|
|        5400|   -6.343252|   -8.493087|    0.824240|    0.012166|
|        5401|   -6.342673|   -8.496717|    0.824240|    0.012166|
|        5402|   -6.342024|   -8.500237|    0.824240|    0.012166|
|        5403|   -6.341313|   -8.503622|    0.824240|    0.012166|
|        5404|   -6.340547|   -8.506851|    0.824240|    0.012166|
|        5405|   -6.339735|   -8.509903|    0.824241|    0.012166|
|        5406|   -6.338879|   -8.512764|    0.824241|    0.012166|
|        5407|   -6.337984|   -8.515422|    0.824241|    0.012165|
|        5408|   -6.337054|   -8.517869|    0.824241|    0.012165|
|        5409|   -6.336091|   -8.520100|    0.824241|    0.012165|
|        5410|   -6.335099|   -8.522110|    0.824241|    0.012165|
|        5411|   -6.334080|   -8.523901|    0.824241|    0.012165|
|        5412|   -6.333038|   -8.525476|    0.824241|    0.012165|
|        5413|   -6.331976|   -8.526840|    0.824241|    0.012165|
|        5414|   -6.330898|   -8.528004|    0.824241|    0.012165|
|        5415|   -6.329808|   -8.528980|    0.824241|    0.012165|
|        5416|   -6.328711|   -8.529779|    0.824242|    0.012165|
|        5417|   -6.327612|   -8.530416|    0.824242|    0.012165|
|        5418|   -6.326518|   -8.530906|    0.824242|    0.012165|
|        5419|   -6.325435|   -8.531263|    0.824242|    0.012165|
|        5420|   -6.324371|   -8.531506|    0.824242|    0.012165|
|        5421|   -6.323335|   -8.531658|    0.824242|    0.012164|
|        5422|   -6.322335|   -8.531729|    0.824242|    0.012164|
|        5423|   -6.321381|   -8.531726|    0.824242|    0.012164|
|        5424|   -6.320484|   -8.531656|    0.824242|    0.012164|
|        5425|   -6.319656|   -8.531526|    0.824242|    0.012164|
|        5426|   -6.318908|   -8.531342|    0.824242|    0.012164|
|        5427|   -6.318254|   -8.531109|    0.824242|    0.012164|
|        5428|   -6.317706|   -8.530834|    0.824242|    0.012164|
|        5429|   -6.317279|   -8.530522|    0.824242|    0.012164|
|        5430|   -6.316987|   -8.530179|    0.824242|    0.012164|
|        5431|   -6.316846|   -8.529814|    0.824242|    0.012164|
|        5432|   -6.316869|   -8.529433|    0.824242|    0.012164|
|        5433|   -6.317073|   -8.529044|    0.824242|    0.012164|
|        5434|   -6.317471|   -8.528658|    0.824242|    0.012164|
|        5435|   -6.318078|   -8.528284|    0.824242|    0.012164|
|        5436|   -6.318908|   -8.527932|    0.824242|    0.012164|
|        5437|   -6.319974|   -8.527615|    0.824242|    0.012164|
|        5438|   -6.321287|   -8.527343|    0.824242|    0.012164|
|        5439|   -6.322859|   -8.527130|    0.824242|    0.012164|
|        5440|   -6.324698|   -8.526987|    0.824242|    0.012164|
|        5441|   -6.326812|   -8.526927|    0.824242|    0.012165|
|        5442|   -6.329206|   -8.526962|    0.824242|    0.012165|
|        5443|   -6.331882|   -8.527102|    0.824242|    0.012165|
|        5444|   -6.334842|   -8.527360|    0.824242|    0.012165|
|        5445|   -6.338082|   -8.527745|    0.824241|    0.012165|
|        5446|   -6.341598|   -8.528266|    0.824241|    0.012165|
|        5447|   -6.345381|   -8.528931|    0.824241|    0.012165|
|        5448|   -6.349419|   -8.529747|    0.824241|    0.012165|
|        5449|   -6.353696|   -8.530721|    0.824241|    0.012165|
|        5450|   -6.358194|   -8.531856|    0.824241|    0.012165|
|        5451|   -6.362889|   -8.533155|    0.824241|    0.012165|
|        5452|   -6.367754|   -8.534622|    0.824241|    0.012165|
|        5453|   -6.372758|   -8.536254|    0.824240|    0.012165|
|        5454|   -6.377868|   -8.538052|    0.824240|    0.012165|
|        5455|   -6.383045|   -8.540015|    0.824240|    0.012165|
|        5456|   -6.388247|   -8.542143|    0.824240|    0.012165|
|        5457|   -6.393432|   -8.544432|    0.824240|    0.012166|
|        5458|   -6.398551|   -8.546879|    0.824240|    0.012166|
|        5459|   -6.403559|   -8.549480|    0.824239|    0.012166|
|        5460|   -6.408405|   -8.552233|    0.824239|    0.012166|
|        5461|   -6.413044|   -8.555133|    0.824239|    0.012166|
|        5462|   -6.417427|   -8.558174|    0.824239|    0.012166|
|        5463|   -6.421512|   -8.561347|    0.824239|    0.012166|
|        5464|   -6.425259|   -8.564647|    0.824238|    0.012166|
|        5465|   -6.428633|   -8.568065|    0.824238|    0.012166|
|        5466|   -6.431605|   -8.571596|    0.824238|    0.012166|
|        5467|   -6.434156|   -8.575232|    0.824238|    0.012166|
|        5468|   -6.436269|   -8.578965|    0.824238|    0.012166|
|        5469|   -6.437941|   -8.582788|    0.824237|    0.012166|
|        5470|   -6.439173|   -8.586692|    0.824237|    0.012166|
|        5471|   -6.439977|   -8.590670|    0.824237|    0.012166|
|        5472|   -6.440369|   -8.594714|    0.824237|    0.012167|
|        5473|   -6.440376|   -8.598813|    0.824236|    0.012167|
|        5474|   -6.440027|   -8.602959|    0.824236|    0.012167|
|        5475|   -6.439358|   -8.607142|    0.824236|    0.012167|
|        5476|   -6.438409|   -8.611353|    0.824236|    0.012167|
|        5477|   -6.437220|   -8.615580|    0.824235|    0.012167|
|        5478|   -6.435835|   -8.619814|    0.824235|    0.012167|
|        5479|   -6.434297|   -8.624043|    0.824235|    0.012167|
|        5480|   -6.432649|   -8.628257|    0.824234|    0.012167|
|        5481|   -6.430933|   -8.632444|    0.824234|    0.012167|
|        5482|   -6.429189|   -8.636594|    0.824234|    0.012167|
|        5483|   -6.427455|   -8.640697|    0.824234|    0.012167|
|        5484|   -6.425765|   -8.644741|    0.824233|    0.012167|
|        5485|   -6.424151|   -8.648717|    0.824233|    0.012167|
|        5486|   -6.422643|   -8.652616|    0.824233|    0.012167|
|        5487|   -6.421268|   -8.656431|    0.824233|    0.012167|
|        5488|   -6.420047|   -8.660153|    0.824232|    0.012167|
|        5489|   -6.419001|   -8.663779|    0.824232|    0.012167|
|        5490|   -6.418147|   -8.667307|    0.824232|    0.012167|
|        5491|   -6.417499|   -8.670736|    0.824232|    0.012167|
|        5492|   -6.417070|   -8.674062|    0.824232|    0.012167|
|        5493|   -6.416870|   -8.677282|    0.824231|    0.012167|
|        5494|   -6.416905|   -8.680400|    0.824231|    0.012167|
|        5495|   -6.417181|   -8.683416|    0.824231|    0.012167|
|        5496|   -6.417701|   -8.686336|    0.824231|    0.012167|
|        5497|   -6.418467|   -8.689165|    0.824231|    0.012167|
|        5498|   -6.419479|   -8.691910|    0.824230|    0.012167|
|        5499|   -6.420736|   -8.694579|    0.824230|    0.012152|
+-----------------------------------------------------------------------+
|Fixed CL Mode (Finite Difference)       |Value                         |
+-----------------------------------------------------------------------+
|Delta CL / Delta AoA                    |0.230295                      |
|Delta CD / Delta CL                     |0.0189419                     |
|Delta CMz / Delta CL                    |-0.00218015                   |
+-----------------------------------------------------------------------+
Writing Flow Meta-Data file: flow.meta

----------------------------- Solver Exit -------------------------------

Maximum number of iterations reached (ITER = 5500) before convergence.
+-----------------------------------------------------------------------+
|      Convergence Field     |     Value    |   Criterion  |  Converged |
+-----------------------------------------------------------------------+
|                    rms[Rho]|      -6.42074|         < -12|          No|
+-----------------------------------------------------------------------+
-------------------------------------------------------------------------

--------------------------- Finalizing Solver ---------------------------
Deleted CNumerics container.
Deleted CIntegration container.
Deleted CSolver container.
Deleted CIteration container.
Deleted CInterface container.
Deleted CGeometry container.
Deleted CFreeFormDefBox class.
Deleted CSurfaceMovement class.
Deleted CVolumetricMovement class.
Deleted CConfig container.
Deleted nInst container.
Deleted COutput class.
-------------------------------------------------------------------------

------------------------- Exit Success (SU2_CFD) ------------------------


-------------------------------------------------------------------------
|    ___ _   _ ___                                                      |
|   / __| | | |_  )   Release 8.0.0 "Harrier"                           |
|   \__ \ |_| |/ /                                                      |
|   |___/\___//___|   Suite (Solution Exporting Code)                   |
|                                                                       |
-------------------------------------------------------------------------
| SU2 Project Website: https://su2code.github.io                        |
|                                                                       |
| The SU2 Project is maintained by the SU2 Foundation                   |
| (http://su2foundation.org)                                            |
-------------------------------------------------------------------------
| Copyright 2012-2023, SU2 Contributors                                 |
|                                                                       |
| SU2 is free software; you can redistribute it and/or                  |
| modify it under the terms of the GNU Lesser General Public            |
| License as published by the Free Software Foundation; either          |
| version 2.1 of the License, or (at your option) any later version.    |
|                                                                       |
| SU2 is distributed in the hope that it will be useful,                |
| but WITHOUT ANY WARRANTY; without even the implied warranty of        |
| MERCHANTABILITY or FITNESS FOR A PARTICULAR PURPOSE. See the GNU      |
| Lesser General Public License for more details.                       |
|                                                                       |
| You should have received a copy of the GNU Lesser General Public      |
| License along with SU2. If not, see <http://www.gnu.org/licenses/>.   |
-------------------------------------------------------------------------

----------------- Physical Case Definition ( Zone 0 ) -------------------
Input mesh file name: mesh_RAE2822_turb_deform.su2

-------------------- Output Information ( Zone 0 ) ----------------------
The tabular file format is CSV (.csv).
Flow variables file name: flow.

------------- Config File Boundary Information ( Zone 0 ) ---------------
+-----------------------------------------------------------------------+
|                        Marker Type|                        Marker Name|
+-----------------------------------------------------------------------+
|                          Far-field|                           FARFIELD|
+-----------------------------------------------------------------------+
|                     Heat flux wall|                            AIRFOIL|
+-----------------------------------------------------------------------+
Two dimensional problem.
13937 grid points before partitioning.
22842 volume elements before partitioning.
2 surface markers.
192 boundary elements in index 0 (Marker = AIRFOIL).
40 boundary elements in index 1 (Marker = FARFIELD).
Executing the partitioning functions.
Building the graph adjacency structure.
Calling ParMETIS... graph partitioning complete (831 edge cuts).
Distributing ParMETIS coloring.
Rebalancing vertices.
Rebalancing volume element connectivity.
Rebalancing markers and surface elements.
14875 vertices including ghost points. 
23674 interior elements including halo cells. 
18780 triangles.
4894 quadrilaterals.
Establishing MPI communication patterns.
Identify vertices.
Storing a mapping from global to local point index.

------------------------- Solution Postprocessing -----------------------
Reading and storing the solution from restart_flow.
Volume output fields: COORDINATES, SOLUTION
  Info: Ignoring the following screen output fields:
  RMS_DENSITY, RMS_NU_TILDE, LIFT, DRAG
Screen output fields: INNER_ITER
  Info: Ignoring the following history output groups:
  RMS_RES, AERO_COEFF
History output group(s): ITER
Warning: No (valid) fields chosen for convergence monitoring. Convergence monitoring inactive.
Warning: No (valid) fields chosen for time convergence monitoring. Time convergence monitoring inactive.
|Paraview                           |flow.vtu                           |
|Paraview surface                   |surface_flow.vtu                   |
|CSV file                           |surface_flow.csv                   |

------------------------- Finalize Solver -------------------------
Deleted CGeometry container.
Deleted CSolver class.
Deleted CConfig container.
Deleted COutput class.

Completed in 0.015638 seconds on 6 cores.

------------------------- Exit Success (SU2_SOL) ------------------------

