
-------------------------------------------------------------------------
|    ___ _   _ ___                                                      |
|   / __| | | |_  )   Release 8.0.0 "Harrier"                           |
|   \__ \ |_| |/ /                                                      |
|   |___/\___//___|   Suite (Computational Fluid Dynamics Code)         |
|                                                                       |
-------------------------------------------------------------------------
| SU2 Project Website: https://su2code.github.io                        |
|                                                                       |
| The SU2 Project is maintained by the SU2 Foundation                   |
| (http://su2foundation.org)                                            |
-------------------------------------------------------------------------
| Copyright 2012-2023, SU2 Contributors                                 |
|                                                                       |
| SU2 is free software; you can redistribute it and/or                  |
| modify it under the terms of the GNU Lesser General Public            |
| License as published by the Free Software Foundation; either          |
| version 2.1 of the License, or (at your option) any later version.    |
|                                                                       |
| SU2 is distributed in the hope that it will be useful,                |
| but WITHOUT ANY WARRANTY; without even the implied warranty of        |
| MERCHANTABILITY or FITNESS FOR A PARTICULAR PURPOSE. See the GNU      |
| Lesser General Public License for more details.                       |
|                                                                       |
| You should have received a copy of the GNU Lesser General Public      |
| License along with SU2. If not, see <http://www.gnu.org/licenses/>.   |
-------------------------------------------------------------------------

Parsing config file for zone 0

----------------- Physical Case Definition ( Zone 0 ) -------------------
Compressible RANS equations.
Turbulence model: Spalart-Allmaras-noft2
Hybrid RANS/LES: No Hybrid RANS/LES
Mach number: 0.734.
Angle of attack (AoA): 2.31 deg, and angle of sideslip (AoS): 0 deg.
Reynolds number: 6.5e+06. Reference length 1.
Fixed CL mode, target value: 0.824.
Reading and writing binary SU2 native restart files.
Read flow solution from: solution_flow.dat.
Dimensional simulation.
The reference area is 1 m^2.
The semi-span will be computed using the max y(3D) value.
The reference length is 1 m.
Reference origin for moment evaluation is (0.25, 0, 0).
Surface(s) where the force coefficients are evaluated: AIRFOIL.

Surface(s) plotted in the output file: AIRFOIL.
Surface(s) affected by the design variables: AIRFOIL.
Input mesh file name: mesh_RAE2822_turb_deform.su2

--------------- Space Numerical Integration ( Zone 0 ) ------------------
Jameson-Schmidt-Turkel scheme (2nd order in space) for the flow inviscid terms.
JST viscous coefficients (2nd & 4th): 0.5, 0.02.
The method includes a grid stretching correction (p = 0.3).
Scalar upwind solver for the turbulence model.
First order integration in space.
Average of gradients with correction (viscous flow terms).
Average of gradients with correction (viscous turbulence terms).
Gradient for viscous and source terms: inverse-distance weighted Least-Squares.

--------------- Time Numerical Integration  ( Zone 0 ) ------------------
Local time stepping (steady state simulation).
Euler implicit method for the flow equations.
FGMRES is used for solving the linear system.
Using a ILU(0) preconditioning.
Convergence criteria of the linear solver: 1e-06.
Max number of linear iterations: 10.
No CFL adaptation.
Courant-Friedrichs-Lewy number:       10
Euler implicit time integration for the turbulence model.

------------------ Convergence Criteria  ( Zone 0 ) ---------------------
Maximum number of solver subiterations: 5500.
Begin convergence monitoring at iteration 10.
Residual minimum value: 1e-12.
Cauchy series min. value: 1e-06.
Number of Cauchy elements: 100.
Begin windowed time average at iteration 0.

-------------------- Output Information ( Zone 0 ) ----------------------
File writing frequency: 
+------------------------------------+
|                     File| Frequency|
+------------------------------------+
|                  RESTART|     10000|
|                 PARAVIEW|     10000|
|         SURFACE_PARAVIEW|     10000|
|              SURFACE_CSV|     10000|
+------------------------------------+
Writing the convergence history file every 1 inner iterations.
Writing the screen convergence history every 1 inner iterations.
The tabular file format is CSV (.csv).
Convergence history file name: history_direct.
Forces breakdown file name: forces_breakdown.dat.
Surface file name: surface_flow.
Volume file name: flow.
Restart file name: restart_flow.dat.

------------- Config File Boundary Information ( Zone 0 ) ---------------
+-----------------------------------------------------------------------+
|                        Marker Type|                        Marker Name|
+-----------------------------------------------------------------------+
|                          Far-field|                           FARFIELD|
+-----------------------------------------------------------------------+
|                     Heat flux wall|                            AIRFOIL|
+-----------------------------------------------------------------------+

-------------------- Output Preprocessing ( Zone 0 ) --------------------

WARNING: SURFACE_PRESSURE_DROP can only be computed for at least 2 surfaces (outlet, inlet, ...)

Screen output fields: INNER_ITER, RMS_DENSITY, RMS_NU_TILDE, LIFT, DRAG
History output group(s): ITER, RMS_RES, AERO_COEFF
Convergence field(s): RMS_DENSITY
Warning: No (valid) fields chosen for time convergence monitoring. Time convergence monitoring inactive.
Volume output fields: COORDINATES, SOLUTION, PRIMITIVE

------------------- Geometry Preprocessing ( Zone 0 ) -------------------
Two dimensional problem.
13937 grid points before partitioning.
22842 volume elements before partitioning.
2 surface markers.
192 boundary elements in index 0 (Marker = AIRFOIL).
40 boundary elements in index 1 (Marker = FARFIELD).
Executing the partitioning functions.
Building the graph adjacency structure.
Calling ParMETIS... graph partitioning complete (831 edge cuts).
Distributing ParMETIS coloring.
Rebalancing vertices.
Rebalancing volume element connectivity.
Rebalancing markers and surface elements.
14875 vertices including ghost points. 
23674 interior elements including halo cells. 
18780 triangles.
4894 quadrilaterals.
Establishing MPI communication patterns.
Setting point connectivity.
Renumbering points (Reverse Cuthill McKee Ordering).
Recomputing point connectivity.
Setting element connectivity.
Checking the numerical grid orientation.
All volume elements are correctly orientend.
All surface elements are correctly orientend.
Identifying edges and vertices.
Setting the control volume structure.
Area of the computational grid: 32209.9.
Searching for the closest normal neighbors to the surfaces.
Storing a mapping from global to local point index.
Compute the surface curvature.
Max K: 159.054. Mean K: 7.32214. Standard deviation K: 21.7531.
Checking for periodicity.
Computing mesh quality statistics for the dual control volumes.
+--------------------------------------------------------------+
|           Mesh Quality Metric|        Minimum|        Maximum|
+--------------------------------------------------------------+
|    Orthogonality Angle (deg.)|        75.2882|        89.9991|
|     CV Face Area Aspect Ratio|        1.00148|        3358.36|
|           CV Sub-Volume Ratio|        1.00061|        1210.87|
+--------------------------------------------------------------+
Finding max control volume width.
Communicating number of neighbors.
Wetted area = 2.02332 m.
Area projection in the x-plane = 0.123928 m, y-plane = 0.995873 m.
Max. coordinate in the x-direction = 1 m, y-direction = 0.0635842 m.
Min. coordinate in the x-direction = 0 m, y-direction = -0.0593641 m.
Computing wall distances.

-------------------- Solver Preprocessing ( Zone 0 ) --------------------
WARNING: AoA in the solution file (2.78081 deg.) +
         AoA offset in mesh file (0 deg.) = 2.78081 deg.
WARNING: SU2 will use the dCD/dCL provided in the direct solution file: 0.0204483.
WARNING: SU2 will use the dCMz/dCL provided in the direct solution file: 0.0150753.
Viscous flow: Computing pressure using the ideal gas law
based on the free-stream temperature and a density computed
from the Reynolds number.
Force coefficients computed using free-stream values.

-- Models:
+------------------------------------------------------------------------------+
|          Viscosity Model|        Conductivity Model|              Fluid Model|
+------------------------------------------------------------------------------+
|               SUTHERLAND|          CONSTANT_PRANDTL|             STANDARD_AIR|
+------------------------------------------------------------------------------+
-- Fluid properties:
+------------------------------------------------------------------------------+
|                  Name|    Dim. value|    Ref. value|      Unit|Non-dim. value|
+------------------------------------------------------------------------------+
|        Ref. Viscosity|     1.716e-05|             1|   N.s/m^2|     1.716e-05|
|      Sutherland Temp.|        273.15|             1|         K|        273.15|
|     Sutherland Const.|         110.4|             1|         K|         110.4|
+------------------------------------------------------------------------------+
|        Prandtl (Lam.)|             -|             -|         -|          0.71|
|       Prandtl (Turb.)|             -|             -|         -|           0.9|
+------------------------------------------------------------------------------+
|          Gas Constant|       287.058|             1|  N.m/kg.K|       287.058|
|      Spec. Heat Ratio|             -|             -|         -|           1.4|
+------------------------------------------------------------------------------+
-- Initial and free-stream conditions:
+------------------------------------------------------------------------------+
|                  Name|    Dim. value|    Ref. value|      Unit|Non-dim. value|
+------------------------------------------------------------------------------+
|       Static Pressure|         38515|             1|        Pa|         38515|
|               Density|      0.465631|             1|    kg/m^3|      0.465631|
|           Temperature|        288.15|             1|         K|        288.15|
|          Total Energy|        237984|             1|   m^2/s^2|        237984|
|            Velocity-X|       249.484|             1|       m/s|       249.484|
|            Velocity-Y|        12.118|             1|       m/s|        12.118|
|    Velocity Magnitude|       249.778|             1|       m/s|       249.778|
+------------------------------------------------------------------------------+
|             Viscosity|    1.7893e-05|             1|   N.s/m^2|    1.7893e-05|
|          Conductivity|             -|             1|   W/m^2.K|             -|
|     Turb. Kin. Energy|       233.959|             1|   m^2/s^2|       233.959|
|     Spec. Dissipation|        608834|             1|       1/s|        608834|
+------------------------------------------------------------------------------+
|           Mach Number|             -|             -|         -|         0.734|
|       Reynolds Number|             -|             -|         -|       6.5e+06|
+------------------------------------------------------------------------------+
Initialize Jacobian structure (Navier-Stokes). MG level: 0.
Initialize Jacobian structure (SA model).

------------------- Numerics Preprocessing ( Zone 0 ) -------------------

----------------- Integration Preprocessing ( Zone 0 ) ------------------

------------------- Iteration Preprocessing ( Zone 0 ) ------------------
Euler/Navier-Stokes/RANS fluid iteration.

------------------------------ Begin Solver -----------------------------

Simulation Run using the Single-zone Driver
WARNING: SU2 was not compiled for an AVX-capable architecture. Performance could be better,
         see https://su2code.github.io/docs_v7/Build-SU2-Linux-MacOS/#compiler-optimizations
+----------------------------------------------------------------+
|  Inner_Iter|    rms[Rho]|     rms[nu]|          CL|          CD|
+----------------------------------------------------------------+
|           0|   -5.409247|   -6.646980|    0.824015|    0.012143|
|           1|   -5.466517|   -6.755403|    0.824023|    0.012142|
|           2|   -5.531966|   -6.876237|    0.824024|    0.012142|
|           3|   -5.591536|   -7.001777|    0.824021|    0.012141|
|           4|   -5.642010|   -7.122549|    0.824016|    0.012141|
|           5|   -5.678909|   -7.222644|    0.824012|    0.012141|
|           6|   -5.699046|   -7.283628|    0.824010|    0.012141|
|           7|   -5.704283|   -7.300166|    0.824009|    0.012141|
|           8|   -5.699615|   -7.286534|    0.824010|    0.012142|
|           9|   -5.689317|   -7.265110|    0.824013|    0.012143|
|          10|   -5.675970|   -7.249361|    0.824016|    0.012144|
|          11|   -5.661441|   -7.244026|    0.824020|    0.012146|
|          12|   -5.647474|   -7.248599|    0.824024|    0.012148|
|          13|   -5.635486|   -7.259179|    0.824029|    0.012150|
|          14|   -5.626273|   -7.268887|    0.824032|    0.012152|
|          15|   -5.619999|   -7.269078|    0.824036|    0.012154|
|          16|   -5.616384|   -7.253706|    0.824038|    0.012156|
|          17|   -5.614896|   -7.224225|    0.824039|    0.012158|
|          18|   -5.614876|   -7.188522|    0.824039|    0.012159|
|          19|   -5.615620|   -7.155239|    0.824038|    0.012161|
|          20|   -5.616475|   -7.130207|    0.824037|    0.012163|
|          21|   -5.616961|   -7.116211|    0.824034|    0.012164|
|          22|   -5.616883|   -7.113884|    0.824032|    0.012165|
|          23|   -5.616359|   -7.122434|    0.824029|    0.012166|
|          24|   -5.615751|   -7.139940|    0.824026|    0.012167|
|          25|   -5.615510|   -7.163406|    0.824024|    0.012168|
|          26|   -5.616018|   -7.189017|    0.824021|    0.012168|
|          27|   -5.617474|   -7.211953|    0.824020|    0.012169|
|          28|   -5.619849|   -7.228573|    0.824018|    0.012169|
|          29|   -5.622916|   -7.237491|    0.824018|    0.012170|
|          30|   -5.626325|   -7.239978|    0.824017|    0.012170|
|          31|   -5.629701|   -7.238966|    0.824017|    0.012170|
|          32|   -5.632730|   -7.237569|    0.824017|    0.012171|
|          33|   -5.635225|   -7.238125|    0.824018|    0.012171|
|          34|   -5.637133|   -7.241959|    0.824018|    0.012171|
|          35|   -5.638520|   -7.249533|    0.824018|    0.012172|
|          36|   -5.639521|   -7.260672|    0.824018|    0.012172|
|          37|   -5.640292|   -7.274775|    0.824018|    0.012172|
|          38|   -5.640975|   -7.290969|    0.824018|    0.012173|
|          39|   -5.641680|   -7.308223|    0.824017|    0.012173|
|          40|   -5.642472|   -7.325463|    0.824016|    0.012174|
|          41|   -5.643383|   -7.341671|    0.824014|    0.012174|
|          42|   -5.644412|   -7.355988|    0.824013|    0.012174|
|          43|   -5.645538|   -7.367808|    0.824011|    0.012175|
|          44|   -5.646722|   -7.376831|    0.824009|    0.012175|
|          45|   -5.647916|   -7.383077|    0.824006|    0.012176|
|          46|   -5.649064|   -7.386841|    0.824004|    0.012176|
|          47|   -5.650105|   -7.388618|    0.824001|    0.012176|
|          48|   -5.650982|   -7.388999|    0.823998|    0.012176|
|          49|   -5.651638|   -7.388584|    0.823995|    0.012176|
|          50|   -5.652032|   -7.387909|    0.823992|    0.012176|
|          51|   -5.652136|   -7.387397|    0.823989|    0.012176|
|          52|   -5.651943|   -7.387343|    0.823986|    0.012176|
|          53|   -5.651469|   -7.387912|    0.823983|    0.012176|
|          54|   -5.650750|   -7.389156|    0.823980|    0.012176|
|          55|   -5.649836|   -7.391037|    0.823978|    0.012175|
|          56|   -5.648789|   -7.393466|    0.823975|    0.012175|
|          57|   -5.647666|   -7.396327|    0.823973|    0.012174|
|          58|   -5.646521|   -7.399510|    0.823971|    0.012174|
|          59|   -5.645391|   -7.402935|    0.823969|    0.012173|
|          60|   -5.644299|   -7.406559|    0.823968|    0.012173|
|          61|   -5.643253|   -7.410376|    0.823967|    0.012172|
|          62|   -5.642249|   -7.414412|    0.823966|    0.012172|
|          63|   -5.641278|   -7.418708|    0.823965|    0.012171|
|          64|   -5.640332|   -7.423305|    0.823964|    0.012170|
|          65|   -5.639407|   -7.428231|    0.823964|    0.012170|
|          66|   -5.638509|   -7.433493|    0.823964|    0.012169|
|          67|   -5.637651|   -7.439072|    0.823963|    0.012168|
|          68|   -5.636854|   -7.444924|    0.823963|    0.012168|
|          69|   -5.636141|   -7.450990|    0.823964|    0.012167|
|          70|   -5.635536|   -7.457198|    0.823964|    0.012166|
|          71|   -5.635058|   -7.463473|    0.823964|    0.012166|
|          72|   -5.634719|   -7.469745|    0.823964|    0.012165|
|          73|   -5.634523|   -7.475950|    0.823965|    0.012164|
|          74|   -5.634467|   -7.482033|    0.823965|    0.012164|
|          75|   -5.634546|   -7.487951|    0.823966|    0.012163|
|          76|   -5.634749|   -7.493667|    0.823967|    0.012162|
|          77|   -5.635068|   -7.499147|    0.823967|    0.012162|
|          78|   -5.635494|   -7.504363|    0.823968|    0.012161|
|          79|   -5.636026|   -7.509288|    0.823968|    0.012161|
|          80|   -5.636660|   -7.513899|    0.823969|    0.012160|
|          81|   -5.637396|   -7.518176|    0.823970|    0.012160|
|          82|   -5.638232|   -7.522104|    0.823970|    0.012159|
|          83|   -5.639162|   -7.525677|    0.823971|    0.012159|
|          84|   -5.640172|   -7.528897|    0.823972|    0.012158|
|          85|   -5.641242|   -7.531776|    0.823972|    0.012158|
|          86|   -5.642344|   -7.534332|    0.823973|    0.012157|
|          87|   -5.643444|   -7.536594|    0.823973|    0.012157|
|          88|   -5.644506|   -7.538593|    0.823974|    0.012156|
|          89|   -5.645492|   -7.540367|    0.823974|    0.012156|
|          90|   -5.646369|   -7.541952|    0.823975|    0.012155|
|          91|   -5.647113|   -7.543388|    0.823975|    0.012155|
|          92|   -5.647710|   -7.544711|    0.823976|    0.012154|
|          93|   -5.648159|   -7.545959|    0.823976|    0.012154|
|          94|   -5.648474|   -7.547166|    0.823977|    0.012153|
|          95|   -5.648683|   -7.548366|    0.823977|    0.012153|
|          96|   -5.648824|   -7.549594|    0.823978|    0.012152|
|          97|   -5.648944|   -7.550882|    0.823978|    0.012152|
|          98|   -5.649098|   -7.552258|    0.823979|    0.012152|
|          99|   -5.649340|   -7.553749|    0.823980|    0.012151|
|         100|   -5.649725|   -7.555383|    0.823980|    0.012151|
|         101|   -5.650303|   -7.557185|    0.823981|    0.012152|
+-----------------------------------------------------------------------+
|Fixed CL Mode                           |Value                         |
+-----------------------------------------------------------------------+
|Current CL                              |0.823981                      |
|Target CL                               |0.824                         |
|Previous AOA                            |2.78081                       |
|Changed AoA by                          |9.84423e-05                   |
+-----------------------------------------------------------------------+
+----------------------------------------------------------------+
|  Inner_Iter|    rms[Rho]|     rms[nu]|          CL|          CD|
+----------------------------------------------------------------+
|         102|   -4.200019|   -7.552381|    0.823982|    0.012152|
|         103|   -4.585248|   -7.558073|    0.823983|    0.012152|
|         104|   -4.833094|   -7.561469|    0.823984|    0.012151|
|         105|   -4.914339|   -7.564615|    0.823985|    0.012151|
|         106|   -4.967811|   -7.567839|    0.823987|    0.012151|
|         107|   -5.035455|   -7.571221|    0.823988|    0.012151|
|         108|   -5.116915|   -7.574778|    0.823989|    0.012151|
|         109|   -5.197792|   -7.578510|    0.823991|    0.012151|
|         110|   -5.261434|   -7.582405|    0.823992|    0.012151|
|         111|   -5.302375|   -7.586440|    0.823994|    0.012151|
|         112|   -5.325815|   -7.590587|    0.823995|    0.012151|
|         113|   -5.337777|   -7.594821|    0.823997|    0.012151|
|         114|   -5.342583|   -7.599117|    0.823998|    0.012152|
|         115|   -5.344722|   -7.603445|    0.824000|    0.012152|
|         116|   -5.348613|   -7.607764|    0.824001|    0.012152|
|         117|   -5.356994|   -7.612030|    0.824002|    0.012152|
|         118|   -5.370171|   -7.616203|    0.824004|    0.012153|
|         119|   -5.386449|   -7.620247|    0.824005|    0.012153|
|         120|   -5.403310|   -7.624131|    0.824006|    0.012153|
|         121|   -5.418801|   -7.627829|    0.824008|    0.012154|
|         122|   -5.432369|   -7.631319|    0.824009|    0.012154|
|         123|   -5.444661|   -7.634584|    0.824010|    0.012154|
|         124|   -5.456658|   -7.637613|    0.824011|    0.012155|
|         125|   -5.468924|   -7.640397|    0.824012|    0.012155|
|         126|   -5.481384|   -7.642938|    0.824013|    0.012155|
|         127|   -5.493515|   -7.645242|    0.824014|    0.012156|
|         128|   -5.504657|   -7.647319|    0.824015|    0.012156|
|         129|   -5.514243|   -7.649184|    0.824016|    0.012156|
|         130|   -5.521915|   -7.650854|    0.824017|    0.012157|
|         131|   -5.527587|   -7.652348|    0.824017|    0.012157|
|         132|   -5.531467|   -7.653688|    0.824018|    0.012158|
|         133|   -5.534022|   -7.654896|    0.824019|    0.012158|
|         134|   -5.535876|   -7.655992|    0.824020|    0.012158|
|         135|   -5.537647|   -7.657002|    0.824020|    0.012159|
|         136|   -5.539815|   -7.657945|    0.824021|    0.012159|
|         137|   -5.542635|   -7.658842|    0.824022|    0.012160|
|         138|   -5.546120|   -7.659712|    0.824022|    0.012160|
|         139|   -5.550067|   -7.660572|    0.824023|    0.012161|
|         140|   -5.554119|   -7.661436|    0.824024|    0.012161|
|         141|   -5.557849|   -7.662317|    0.824024|    0.012161|
|         142|   -5.560858|   -7.663223|    0.824025|    0.012162|
|         143|   -5.562876|   -7.664158|    0.824026|    0.012162|
|         144|   -5.563829|   -7.665122|    0.824027|    0.012163|
|         145|   -5.563842|   -7.666110|    0.824027|    0.012163|
|         146|   -5.563191|   -7.667114|    0.824028|    0.012164|
|         147|   -5.562218|   -7.668120|    0.824029|    0.012164|
|         148|   -5.561235|   -7.669110|    0.824029|    0.012164|
|         149|   -5.560462|   -7.670066|    0.824030|    0.012165|
|         150|   -5.559997|   -7.670968|    0.824031|    0.012165|
|         151|   -5.559827|   -7.671792|    0.824031|    0.012166|
|         152|   -5.559855|   -7.672520|    0.824032|    0.012166|
|         153|   -5.559940|   -7.673132|    0.824033|    0.012166|
|         154|   -5.559944|   -7.673613|    0.824034|    0.012167|
|         155|   -5.559761|   -7.673953|    0.824034|    0.012167|
|         156|   -5.559335|   -7.674144|    0.824035|    0.012168|
|         157|   -5.558664|   -7.674187|    0.824036|    0.012168|
|         158|   -5.557787|   -7.674089|    0.824036|    0.012168|
|         159|   -5.556773|   -7.673859|    0.824037|    0.012169|
|         160|   -5.555696|   -7.673514|    0.824038|    0.012169|
|         161|   -5.554624|   -7.673075|    0.824038|    0.012169|
|         162|   -5.553611|   -7.672566|    0.824039|    0.012169|
|         163|   -5.552691|   -7.672013|    0.824040|    0.012170|
|         164|   -5.551883|   -7.671445|    0.824040|    0.012170|
|         165|   -5.551191|   -7.670891|    0.824041|    0.012170|
|         166|   -5.550613|   -7.670377|    0.824042|    0.012170|
|         167|   -5.550141|   -7.669932|    0.824042|    0.012170|
|         168|   -5.549768|   -7.669581|    0.824043|    0.012171|
|         169|   -5.549488|   -7.669347|    0.824043|    0.012171|
|         170|   -5.549292|   -7.669252|    0.824044|    0.012171|
|         171|   -5.549176|   -7.669313|    0.824045|    0.012171|
|         172|   -5.549133|   -7.669547|    0.824045|    0.012171|
|         173|   -5.549155|   -7.669966|    0.824046|    0.012171|
|         174|   -5.549233|   -7.670581|    0.824046|    0.012171|
|         175|   -5.549356|   -7.671400|    0.824046|    0.012171|
|         176|   -5.549515|   -7.672428|    0.824047|    0.012171|
|         177|   -5.549697|   -7.673669|    0.824047|    0.012171|
|         178|   -5.549891|   -7.675126|    0.824047|    0.012171|
|         179|   -5.550088|   -7.676799|    0.824048|    0.012171|
|         180|   -5.550280|   -7.678689|    0.824048|    0.012171|
|         181|   -5.550462|   -7.680794|    0.824048|    0.012171|
|         182|   -5.550632|   -7.683114|    0.824048|    0.012171|
|         183|   -5.550791|   -7.685648|    0.824049|    0.012171|
|         184|   -5.550946|   -7.688395|    0.824049|    0.012170|
|         185|   -5.551108|   -7.691356|    0.824049|    0.012170|
|         186|   -5.551294|   -7.694530|    0.824049|    0.012170|
|         187|   -5.551522|   -7.697915|    0.824049|    0.012170|
|         188|   -5.551819|   -7.701513|    0.824049|    0.012170|
|         189|   -5.552213|   -7.705322|    0.824049|    0.012170|
|         190|   -5.552735|   -7.709343|    0.824049|    0.012169|
|         191|   -5.553418|   -7.713575|    0.824049|    0.012169|
|         192|   -5.554296|   -7.718019|    0.824049|    0.012169|
|         193|   -5.555402|   -7.722674|    0.824049|    0.012169|
|         194|   -5.556767|   -7.727541|    0.824049|    0.012168|
|         195|   -5.558418|   -7.732618|    0.824049|    0.012168|
|         196|   -5.560378|   -7.737906|    0.824049|    0.012168|
|         197|   -5.562666|   -7.743405|    0.824049|    0.012167|
|         198|   -5.565291|   -7.749113|    0.824049|    0.012167|
|         199|   -5.568257|   -7.755030|    0.824048|    0.012167|
|         200|   -5.571559|   -7.761153|    0.824048|    0.012166|
|         201|   -5.575183|   -7.767480|    0.824048|    0.012163|
+-----------------------------------------------------------------------+
|Fixed CL Mode                           |Value                         |
+-----------------------------------------------------------------------+
|Current CL                              |0.824048                      |
|Target CL                               |0.824                         |
|Previous AOA                            |2.78091                       |
|Changed AoA by                          |-0.000241753                  |
+-----------------------------------------------------------------------+
+----------------------------------------------------------------+
|  Inner_Iter|    rms[Rho]|     rms[nu]|          CL|          CD|
+----------------------------------------------------------------+
|         202|   -3.809950|   -7.680731|    0.824048|    0.012162|
|         203|   -4.194258|   -7.728272|    0.824048|    0.012162|
|         204|   -4.437808|   -7.748103|    0.824048|    0.012162|
|         205|   -4.516229|   -7.762202|    0.824048|    0.012161|
|         206|   -4.569645|   -7.774445|    0.824048|    0.012161|
|         207|   -4.639098|   -7.785761|    0.824048|    0.012161|
|         208|   -4.725012|   -7.796433|    0.824048|    0.012160|
|         209|   -4.814621|   -7.806618|    0.824048|    0.012160|
|         210|   -4.891413|   -7.816392|    0.824048|    0.012160|
|         211|   -4.947027|   -7.825725|    0.824049|    0.012160|
|         212|   -4.983180|   -7.834593|    0.824049|    0.012159|
|         213|   -5.003906|   -7.843094|    0.824049|    0.012159|
|         214|   -5.013191|   -7.851409|    0.824049|    0.012159|
|         215|   -5.016820|   -7.859678|    0.824050|    0.012158|
|         216|   -5.021198|   -7.867940|    0.824050|    0.012158|
|         217|   -5.030577|   -7.876155|    0.824050|    0.012158|
|         218|   -5.045896|   -7.884285|    0.824051|    0.012158|
|         219|   -5.065345|   -7.892339|    0.824051|    0.012157|
|         220|   -5.085829|   -7.900359|    0.824051|    0.012157|
|         221|   -5.104767|   -7.908384|    0.824052|    0.012157|
|         222|   -5.121327|   -7.916411|    0.824053|    0.012157|
|         223|   -5.136323|   -7.924393|    0.824053|    0.012157|
|         224|   -5.151092|   -7.932256|    0.824054|    0.012157|
|         225|   -5.166450|   -7.939936|    0.824054|    0.012156|
|         226|   -5.182362|   -7.947369|    0.824055|    0.012156|
|         227|   -5.198180|   -7.954543|    0.824056|    0.012156|
|         228|   -5.213056|   -7.961456|    0.824057|    0.012156|
|         229|   -5.226244|   -7.968116|    0.824057|    0.012156|
|         230|   -5.237260|   -7.974543|    0.824058|    0.012156|
|         231|   -5.245960|   -7.980762|    0.824059|    0.012156|
|         232|   -5.252596|   -7.986803|    0.824060|    0.012156|
|         233|   -5.257801|   -7.992682|    0.824061|    0.012156|
|         234|   -5.262463|   -7.998422|    0.824061|    0.012156|
|         235|   -5.267509|   -8.004011|    0.824062|    0.012156|
|         236|   -5.273700|   -8.009436|    0.824063|    0.012156|
|         237|   -5.281504|   -8.014665|    0.824064|    0.012156|
|         238|   -5.291039|   -8.019662|    0.824065|    0.012156|
|         239|   -5.302079|   -8.024381|    0.824065|    0.012156|
|         240|   -5.314097|   -8.028768|    0.824066|    0.012157|
|         241|   -5.326351|   -8.032771|    0.824067|    0.012157|
|         242|   -5.338025|   -8.036338|    0.824067|    0.012157|
|         243|   -5.348426|   -8.039423|    0.824068|    0.012157|
|         244|   -5.357180|   -8.041992|    0.824069|    0.012157|
|         245|   -5.364338|   -8.044031|    0.824069|    0.012157|
|         246|   -5.370346|   -8.045521|    0.824069|    0.012157|
|         247|   -5.375885|   -8.046461|    0.824070|    0.012158|
|         248|   -5.381662|   -8.046855|    0.824070|    0.012158|
|         249|   -5.388245|   -8.046725|    0.824070|    0.012158|
|         250|   -5.395955|   -8.046098|    0.824070|    0.012158|
|         251|   -5.404853|   -8.045012|    0.824070|    0.012158|
|         252|   -5.414765|   -8.043526|    0.824070|    0.012158|
|         253|   -5.425359|   -8.041725|    0.824070|    0.012159|
|         254|   -5.436234|   -8.039674|    0.824070|    0.012159|
|         255|   -5.447007|   -8.037472|    0.824069|    0.012159|
|         256|   -5.457395|   -8.035220|    0.824068|    0.012159|
|         257|   -5.467255|   -8.033039|    0.824068|    0.012159|
|         258|   -5.476589|   -8.031046|    0.824067|    0.012159|
|         259|   -5.485513|   -8.029370|    0.824066|    0.012160|
|         260|   -5.494205|   -8.028139|    0.824065|    0.012160|
|         261|   -5.502851|   -8.027479|    0.824064|    0.012160|
|         262|   -5.511605|   -8.027506|    0.824062|    0.012160|
|         263|   -5.520563|   -8.028327|    0.824061|    0.012160|
|         264|   -5.529765|   -8.030033|    0.824059|    0.012160|
|         265|   -5.539198|   -8.032699|    0.824058|    0.012160|
|         266|   -5.548816|   -8.036379|    0.824056|    0.012160|
|         267|   -5.558559|   -8.041101|    0.824054|    0.012160|
|         268|   -5.568362|   -8.046864|    0.824053|    0.012161|
|         269|   -5.578164|   -8.053629|    0.824051|    0.012161|
|         270|   -5.587911|   -8.061311|    0.824049|    0.012161|
|         271|   -5.597553|   -8.069768|    0.824047|    0.012161|
|         272|   -5.607039|   -8.078797|    0.824045|    0.012161|
|         273|   -5.616310|   -8.088117|    0.824043|    0.012161|
|         274|   -5.625300|   -8.097369|    0.824042|    0.012161|
|         275|   -5.633934|   -8.106116|    0.824040|    0.012161|
|         276|   -5.642131|   -8.113858|    0.824038|    0.012161|
|         277|   -5.649809|   -8.120059|    0.824037|    0.012161|
|         278|   -5.656894|   -8.124203|    0.824035|    0.012161|
|         279|   -5.663319|   -8.125846|    0.824034|    0.012161|
|         280|   -5.669035|   -8.124693|    0.824033|    0.012161|
|         281|   -5.674013|   -8.120641|    0.824032|    0.012161|
|         282|   -5.678241|   -8.113804|    0.824031|    0.012161|
|         283|   -5.681732|   -8.104491|    0.824030|    0.012161|
|         284|   -5.684517|   -8.093158|    0.824029|    0.012161|
|         285|   -5.686642|   -8.080344|    0.824028|    0.012161|
|         286|   -5.688170|   -8.066608|    0.824028|    0.012161|
|         287|   -5.689172|   -8.052478|    0.824028|    0.012161|
|         288|   -5.689727|   -8.038420|    0.824027|    0.012161|
|         289|   -5.689919|   -8.024826|    0.824027|    0.012162|
|         290|   -5.689827|   -8.012011|    0.824027|    0.012162|
|         291|   -5.689533|   -8.000216|    0.824028|    0.012162|
|         292|   -5.689110|   -7.989623|    0.824028|    0.012162|
|         293|   -5.688625|   -7.980360|    0.824028|    0.012161|
|         294|   -5.688138|   -7.972511|    0.824029|    0.012161|
|         295|   -5.687698|   -7.966129|    0.824029|    0.012161|
|         296|   -5.687348|   -7.961240|    0.824030|    0.012161|
|         297|   -5.687122|   -7.957846|    0.824031|    0.012161|
|         298|   -5.687044|   -7.955928|    0.824031|    0.012161|
|         299|   -5.687134|   -7.955450|    0.824032|    0.012161|
|         300|   -5.687406|   -7.956366|    0.824033|    0.012161|
|         301|   -5.687865|   -7.958613|    0.824034|    0.012159|
+-----------------------------------------------------------------------+
|Fixed CL Mode                           |Value                         |
+-----------------------------------------------------------------------+
|Current CL                              |0.824034                      |
|Target CL                               |0.824                         |
|Previous AOA                            |2.78066                       |
|Changed AoA by                          |-0.00016633                   |
+-----------------------------------------------------------------------+
+----------------------------------------------------------------+
|  Inner_Iter|    rms[Rho]|     rms[nu]|          CL|          CD|
+----------------------------------------------------------------+
|         302|   -3.972272|   -7.858288|    0.824035|    0.012159|
|         303|   -4.355581|   -7.908088|    0.824036|    0.012159|
|         304|   -4.596437|   -7.928764|    0.824037|    0.012159|
|         305|   -4.673603|   -7.943768|    0.824039|    0.012159|
|         306|   -4.726562|   -7.957138|    0.824040|    0.012158|
|         307|   -4.795304|   -7.969774|    0.824041|    0.012158|
|         308|   -4.880048|   -7.981909|    0.824042|    0.012158|
|         309|   -4.968381|   -7.993638|    0.824043|    0.012158|
|         310|   -5.044698|   -8.004958|    0.824044|    0.012158|
|         311|   -5.101310|   -8.015729|    0.824045|    0.012158|
|         312|   -5.139685|   -8.025802|    0.824046|    0.012158|
|         313|   -5.163060|   -8.035144|    0.824047|    0.012158|
|         314|   -5.174642|   -8.043825|    0.824048|    0.012158|
|         315|   -5.179801|   -8.051876|    0.824049|    0.012157|
|         316|   -5.184978|   -8.059221|    0.824050|    0.012157|
|         317|   -5.194689|   -8.065731|    0.824051|    0.012157|
|         318|   -5.210163|   -8.071317|    0.824052|    0.012157|
|         319|   -5.229864|   -8.075988|    0.824053|    0.012157|
|         320|   -5.250951|   -8.079825|    0.824054|    0.012157|
|         321|   -5.271045|   -8.082926|    0.824055|    0.012157|
|         322|   -5.289412|   -8.085366|    0.824055|    0.012157|
|         323|   -5.306846|   -8.087187|    0.824056|    0.012156|
|         324|   -5.324585|   -8.088408|    0.824057|    0.012156|
|         325|   -5.343286|   -8.089071|    0.824057|    0.012156|
|         326|   -5.362688|   -8.089232|    0.824058|    0.012156|
|         327|   -5.381857|   -8.088974|    0.824058|    0.012156|
|         328|   -5.399643|   -8.088425|    0.824059|    0.012156|
|         329|   -5.415065|   -8.087708|    0.824059|    0.012156|
|         330|   -5.427532|   -8.086945|    0.824059|    0.012156|
|         331|   -5.436956|   -8.086243|    0.824059|    0.012156|
|         332|   -5.443780|   -8.085699|    0.824060|    0.012155|
|         333|   -5.448892|   -8.085386|    0.824060|    0.012155|
|         334|   -5.453419|   -8.085349|    0.824060|    0.012155|
|         335|   -5.458450|   -8.085605|    0.824060|    0.012155|
|         336|   -5.464811|   -8.086154|    0.824060|    0.012155|
|         337|   -5.472935|   -8.086974|    0.824060|    0.012155|
|         338|   -5.482833|   -8.088039|    0.824060|    0.012155|
|         339|   -5.494113|   -8.089318|    0.824060|    0.012155|
|         340|   -5.506045|   -8.090780|    0.824060|    0.012155|
|         341|   -5.517679|   -8.092397|    0.824059|    0.012155|
|         342|   -5.528035|   -8.094146|    0.824059|    0.012155|
|         343|   -5.536349|   -8.096012|    0.824059|    0.012155|
|         344|   -5.542304|   -8.097989|    0.824058|    0.012155|
|         345|   -5.546115|   -8.100068|    0.824058|    0.012155|
|         346|   -5.548439|   -8.102244|    0.824058|    0.012155|
|         347|   -5.550143|   -8.104511|    0.824057|    0.012155|
|         348|   -5.552055|   -8.106859|    0.824057|    0.012155|
|         349|   -5.554782|   -8.109271|    0.824056|    0.012155|
|         350|   -5.558630|   -8.111727|    0.824056|    0.012155|
|         351|   -5.563615|   -8.114198|    0.824055|    0.012155|
|         352|   -5.569519|   -8.116647|    0.824055|    0.012155|
|         353|   -5.575989|   -8.119040|    0.824054|    0.012155|
|         354|   -5.582631|   -8.121330|    0.824054|    0.012155|
|         355|   -5.589104|   -8.123462|    0.824053|    0.012155|
|         356|   -5.595189|   -8.125390|    0.824052|    0.012155|
|         357|   -5.600811|   -8.127069|    0.824051|    0.012155|
|         358|   -5.606031|   -8.128464|    0.824051|    0.012155|
|         359|   -5.611005|   -8.129552|    0.824050|    0.012155|
|         360|   -5.615928|   -8.130323|    0.824049|    0.012156|
|         361|   -5.620990|   -8.130780|    0.824048|    0.012156|
|         362|   -5.626342|   -8.130944|    0.824047|    0.012156|
|         363|   -5.632080|   -8.130855|    0.824046|    0.012156|
|         364|   -5.638252|   -8.130569|    0.824045|    0.012156|
|         365|   -5.644867|   -8.130159|    0.824044|    0.012156|
|         366|   -5.651910|   -8.129711|    0.824043|    0.012156|
|         367|   -5.659361|   -8.129323|    0.824042|    0.012156|
|         368|   -5.667201|   -8.129097|    0.824040|    0.012156|
|         369|   -5.675418|   -8.129140|    0.824039|    0.012156|
|         370|   -5.684011|   -8.129557|    0.824038|    0.012156|
|         371|   -5.692983|   -8.130448|    0.824037|    0.012157|
|         372|   -5.702335|   -8.131902|    0.824036|    0.012157|
|         373|   -5.712068|   -8.133997|    0.824035|    0.012157|
|         374|   -5.722172|   -8.136793|    0.824033|    0.012157|
|         375|   -5.732629|   -8.140326|    0.824032|    0.012157|
|         376|   -5.743410|   -8.144613|    0.824031|    0.012157|
|         377|   -5.754477|   -8.149639|    0.824030|    0.012157|
|         378|   -5.765783|   -8.155362|    0.824029|    0.012157|
|         379|   -5.777274|   -8.161703|    0.824028|    0.012157|
|         380|   -5.788894|   -8.168549|    0.824027|    0.012157|
|         381|   -5.800578|   -8.175749|    0.824026|    0.012157|
|         382|   -5.812260|   -8.183113|    0.824025|    0.012157|
|         383|   -5.823871|   -8.190419|    0.824025|    0.012157|
|         384|   -5.835339|   -8.197418|    0.824024|    0.012158|
|         385|   -5.846591|   -8.203847|    0.824023|    0.012158|
|         386|   -5.857556|   -8.209447|    0.824023|    0.012158|
|         387|   -5.868162|   -8.213984|    0.824022|    0.012158|
|         388|   -5.878344|   -8.217271|    0.824022|    0.012158|
|         389|   -5.888041|   -8.219194|    0.824022|    0.012158|
|         390|   -5.897199|   -8.219720|    0.824021|    0.012158|
|         391|   -5.905773|   -8.218911|    0.824021|    0.012158|
|         392|   -5.913726|   -8.216909|    0.824021|    0.012158|
|         393|   -5.921032|   -8.213932|    0.824021|    0.012158|
|         394|   -5.927675|   -8.210248|    0.824021|    0.012158|
|         395|   -5.933647|   -8.206156|    0.824021|    0.012158|
|         396|   -5.938950|   -8.201958|    0.824021|    0.012158|
|         397|   -5.943593|   -8.197949|    0.824021|    0.012158|
|         398|   -5.947592|   -8.194400|    0.824022|    0.012158|
|         399|   -5.950972|   -8.191550|    0.824022|    0.012158|
|         400|   -5.953760|   -8.189604|    0.824022|    0.012158|
|         401|   -5.955989|   -8.188734|    0.824023|    0.012156|
+-----------------------------------------------------------------------+
|Fixed CL Mode                           |Value                         |
+-----------------------------------------------------------------------+
|Current CL                              |0.824023                      |
|Target CL                               |0.824                         |
|Previous AOA                            |2.7805                        |
|Changed AoA by                          |-0.000111383                  |
+-----------------------------------------------------------------------+
+----------------------------------------------------------------+
|  Inner_Iter|    rms[Rho]|     rms[nu]|          CL|          CD|
+----------------------------------------------------------------+
|         402|   -4.146545|   -8.064616|    0.824023|    0.012156|
|         403|   -4.530110|   -8.120104|    0.824023|    0.012156|
|         404|   -4.770905|   -8.141409|    0.824024|    0.012156|
|         405|   -4.847563|   -8.156169|    0.824024|    0.012156|
|         406|   -4.900273|   -8.169403|    0.824025|    0.012156|
|         407|   -4.969109|   -8.182338|    0.824025|    0.012156|
|         408|   -5.054367|   -8.195380|    0.824026|    0.012156|
|         409|   -5.143793|   -8.208759|    0.824026|    0.012156|
|         410|   -5.221768|   -8.222568|    0.824027|    0.012156|
|         411|   -5.280257|   -8.236711|    0.824027|    0.012155|
|         412|   -5.320291|   -8.251030|    0.824028|    0.012155|
|         413|   -5.344799|   -8.265464|    0.824028|    0.012155|
|         414|   -5.356870|   -8.280038|    0.824029|    0.012155|
|         415|   -5.362018|   -8.294658|    0.824029|    0.012155|
|         416|   -5.366957|   -8.309051|    0.824030|    0.012155|
|         417|   -5.376413|   -8.322791|    0.824030|    0.012155|
|         418|   -5.391691|   -8.335446|    0.824031|    0.012155|
|         419|   -5.411227|   -8.346681|    0.824031|    0.012155|
|         420|   -5.432120|   -8.356283|    0.824031|    0.012155|
|         421|   -5.451942|   -8.364089|    0.824032|    0.012155|
|         422|   -5.469966|   -8.369973|    0.824032|    0.012155|
|         423|   -5.487031|   -8.373813|    0.824032|    0.012155|
|         424|   -5.504412|   -8.375553|    0.824032|    0.012155|
|         425|   -5.522774|   -8.375257|    0.824032|    0.012155|
|         426|   -5.541839|   -8.373099|    0.824032|    0.012155|
|         427|   -5.560640|   -8.369373|    0.824033|    0.012155|
|         428|   -5.578007|   -8.364425|    0.824033|    0.012155|
|         429|   -5.592959|   -8.358650|    0.824033|    0.012155|
|         430|   -5.604938|   -8.352427|    0.824032|    0.012155|
|         431|   -5.613905|   -8.346079|    0.824032|    0.012155|
|         432|   -5.620365|   -8.339877|    0.824032|    0.012155|
|         433|   -5.625260|   -8.334007|    0.824032|    0.012155|
|         434|   -5.629760|   -8.328591|    0.824032|    0.012155|
|         435|   -5.634986|   -8.323698|    0.824032|    0.012155|
|         436|   -5.641786|   -8.319349|    0.824031|    0.012155|
|         437|   -5.650618|   -8.315523|    0.824031|    0.012155|
|         438|   -5.661517|   -8.312177|    0.824031|    0.012155|
|         439|   -5.674110|   -8.309250|    0.824031|    0.012155|
|         440|   -5.687673|   -8.306682|    0.824030|    0.012155|
|         441|   -5.701236|   -8.304407|    0.824030|    0.012155|
|         442|   -5.713759|   -8.302371|    0.824030|    0.012155|
|         443|   -5.724387|   -8.300530|    0.824029|    0.012155|
|         444|   -5.732700|   -8.298845|    0.824029|    0.012155|
|         445|   -5.738841|   -8.297288|    0.824028|    0.012155|
|         446|   -5.743443|   -8.295836|    0.824028|    0.012155|
|         447|   -5.747407|   -8.294469|    0.824027|    0.012155|
|         448|   -5.751628|   -8.293163|    0.824027|    0.012155|
|         449|   -5.756790|   -8.291897|    0.824027|    0.012155|
|         450|   -5.763265|   -8.290636|    0.824026|    0.012155|
|         451|   -5.771101|   -8.289343|    0.824026|    0.012155|
|         452|   -5.780077|   -8.287980|    0.824025|    0.012155|
|         453|   -5.789794|   -8.286507|    0.824025|    0.012155|
|         454|   -5.799778|   -8.284857|    0.824024|    0.012155|
|         455|   -5.809593|   -8.282974|    0.824023|    0.012155|
|         456|   -5.818923|   -8.280806|    0.824023|    0.012155|
|         457|   -5.827620|   -8.278308|    0.824022|    0.012155|
|         458|   -5.835703|   -8.275445|    0.824022|    0.012156|
|         459|   -5.843319|   -8.272201|    0.824021|    0.012156|
|         460|   -5.850683|   -8.268575|    0.824020|    0.012156|
|         461|   -5.858012|   -8.264586|    0.824020|    0.012156|
|         462|   -5.865482|   -8.260277|    0.824019|    0.012156|
|         463|   -5.873208|   -8.255709|    0.824018|    0.012156|
|         464|   -5.881238|   -8.250964|    0.824017|    0.012156|
|         465|   -5.889568|   -8.246136|    0.824017|    0.012156|
|         466|   -5.898164|   -8.241333|    0.824016|    0.012156|
|         467|   -5.906980|   -8.236668|    0.824015|    0.012156|
|         468|   -5.915969|   -8.232256|    0.824014|    0.012157|
|         469|   -5.925099|   -8.228209|    0.824013|    0.012157|
|         470|   -5.934347|   -8.224630|    0.824013|    0.012157|
|         471|   -5.943697|   -8.221611|    0.824012|    0.012157|
|         472|   -5.953136|   -8.219228|    0.824011|    0.012157|
|         473|   -5.962644|   -8.217543|    0.824010|    0.012157|
|         474|   -5.972193|   -8.216596|    0.824009|    0.012157|
|         475|   -5.981744|   -8.216407|    0.824009|    0.012157|
|         476|   -5.991246|   -8.216974|    0.824008|    0.012157|
|         477|   -6.000639|   -8.218272|    0.824007|    0.012157|
|         478|   -6.009860|   -8.220250|    0.824006|    0.012157|
|         479|   -6.018846|   -8.222834|    0.824006|    0.012157|
|         480|   -6.027534|   -8.225926|    0.824005|    0.012158|
|         481|   -6.035870|   -8.229404|    0.824005|    0.012158|
|         482|   -6.043807|   -8.233126|    0.824004|    0.012158|
|         483|   -6.051308|   -8.236935|    0.824004|    0.012158|
|         484|   -6.058347|   -8.240660|    0.824003|    0.012158|
|         485|   -6.064911|   -8.244132|    0.824003|    0.012158|
|         486|   -6.071000|   -8.247184|    0.824003|    0.012158|
|         487|   -6.076624|   -8.249670|    0.824002|    0.012158|
|         488|   -6.081807|   -8.251470|    0.824002|    0.012158|
|         489|   -6.086583|   -8.252504|    0.824002|    0.012158|
|         490|   -6.090993|   -8.252733|    0.824002|    0.012158|
|         491|   -6.095086|   -8.252168|    0.824002|    0.012158|
|         492|   -6.098916|   -8.250864|    0.824002|    0.012158|
|         493|   -6.102536|   -8.248918|    0.824002|    0.012158|
|         494|   -6.106002|   -8.246455|    0.824002|    0.012158|
|         495|   -6.109363|   -8.243627|    0.824002|    0.012158|
|         496|   -6.112668|   -8.240590|    0.824002|    0.012158|
|         497|   -6.115958|   -8.237506|    0.824003|    0.012158|
|         498|   -6.119267|   -8.234524|    0.824003|    0.012158|
|         499|   -6.122623|   -8.231780|    0.824003|    0.012158|
|         500|   -6.126048|   -8.229390|    0.824003|    0.012158|
|         501|   -6.129555|   -8.227445|    0.824004|    0.012158|
+-----------------------------------------------------------------------+
|Fixed CL Mode                           |Value                         |
+-----------------------------------------------------------------------+
|Current CL                              |0.824004                      |
|Target CL                               |0.824                         |
|Previous AOA                            |2.78039                       |
|Changed AoA by                          |-1.73389e-05                  |
+-----------------------------------------------------------------------+
+----------------------------------------------------------------+
|  Inner_Iter|    rms[Rho]|     rms[nu]|          CL|          CD|
+----------------------------------------------------------------+
|         502|   -4.953664|   -8.221120|    0.824004|    0.012157|
|         503|   -5.331538|   -8.222655|    0.824005|    0.012157|
|         504|   -5.555515|   -8.223073|    0.824005|    0.012157|
|         505|   -5.621030|   -8.223755|    0.824005|    0.012157|
|         506|   -5.666288|   -8.224874|    0.824006|    0.012157|
|         507|   -5.725345|   -8.226425|    0.824006|    0.012157|
|         508|   -5.796199|   -8.228355|    0.824007|    0.012157|
|         509|   -5.867314|   -8.230594|    0.824007|    0.012157|
|         510|   -5.927365|   -8.233056|    0.824008|    0.012157|
|         511|   -5.972664|   -8.235645|    0.824008|    0.012157|
|         512|   -6.005258|   -8.238260|    0.824009|    0.012157|
|         513|   -6.027318|   -8.240808|    0.824009|    0.012157|
|         514|   -6.040503|   -8.243200|    0.824009|    0.012157|
|         515|   -6.047790|   -8.245361|    0.824010|    0.012157|
|         516|   -6.053173|   -8.247224|    0.824010|    0.012156|
|         517|   -6.059775|   -8.248744|    0.824011|    0.012156|
|         518|   -6.068722|   -8.249896|    0.824011|    0.012156|
|         519|   -6.079401|   -8.250682|    0.824011|    0.012156|
|         520|   -6.090490|   -8.251125|    0.824011|    0.012156|
|         521|   -6.101004|   -8.251268|    0.824012|    0.012156|
|         522|   -6.110769|   -8.251170|    0.824012|    0.012156|
|         523|   -6.120171|   -8.250898|    0.824012|    0.012156|
|         524|   -6.129586|   -8.250527|    0.824012|    0.012156|
|         525|   -6.138983|   -8.250136|    0.824012|    0.012156|
|         526|   -6.147910|   -8.249801|    0.824012|    0.012156|
|         527|   -6.155748|   -8.249597|    0.824013|    0.012156|
|         528|   -6.162004|   -8.249589|    0.824013|    0.012155|
|         529|   -6.166476|   -8.249835|    0.824013|    0.012155|
|         530|   -6.169272|   -8.250382|    0.824013|    0.012155|
|         531|   -6.170740|   -8.251262|    0.824012|    0.012155|
|         532|   -6.171373|   -8.252498|    0.824012|    0.012155|
|         533|   -6.171711|   -8.254095|    0.824012|    0.012155|
|         534|   -6.172246|   -8.256050|    0.824012|    0.012155|
|         535|   -6.173353|   -8.258345|    0.824012|    0.012155|
|         536|   -6.175240|   -8.260952|    0.824012|    0.012155|
|         537|   -6.177937|   -8.263836|    0.824012|    0.012155|
|         538|   -6.181324|   -8.266955|    0.824012|    0.012155|
|         539|   -6.185168|   -8.270261|    0.824011|    0.012155|
|         540|   -6.189177|   -8.273707|    0.824011|    0.012155|
|         541|   -6.193059|   -8.277246|    0.824011|    0.012155|
|         542|   -6.196576|   -8.280831|    0.824011|    0.012155|
|         543|   -6.199591|   -8.284426|    0.824011|    0.012155|
|         544|   -6.202091|   -8.287997|    0.824010|    0.012155|
|         545|   -6.204184|   -8.291522|    0.824010|    0.012155|
|         546|   -6.206059|   -8.294986|    0.824010|    0.012155|
|         547|   -6.207934|   -8.298385|    0.824010|    0.012155|
|         548|   -6.210005|   -8.301721|    0.824009|    0.012155|
|         549|   -6.212408|   -8.305002|    0.824009|    0.012155|
|         550|   -6.215201|   -8.308242|    0.824009|    0.012155|
|         551|   -6.218366|   -8.311458|    0.824009|    0.012155|
|         552|   -6.221830|   -8.314666|    0.824009|    0.012155|
|         553|   -6.225486|   -8.317884|    0.824009|    0.012155|
|         554|   -6.229225|   -8.321120|    0.824008|    0.012155|
|         555|   -6.232953|   -8.324383|    0.824008|    0.012155|
|         556|   -6.236608|   -8.327668|    0.824008|    0.012155|
|         557|   -6.240159|   -8.330965|    0.824008|    0.012155|
|         558|   -6.243605|   -8.334255|    0.824008|    0.012155|
|         559|   -6.246965|   -8.337511|    0.824008|    0.012155|
|         560|   -6.250265|   -8.340696|    0.824008|    0.012155|
|         561|   -6.253526|   -8.343770|    0.824007|    0.012155|
|         562|   -6.256765|   -8.346689|    0.824007|    0.012156|
|         563|   -6.259985|   -8.349408|    0.824007|    0.012156|
|         564|   -6.263179|   -8.351886|    0.824007|    0.012156|
|         565|   -6.266332|   -8.354085|    0.824007|    0.012156|
|         566|   -6.269426|   -8.355981|    0.824007|    0.012156|
|         567|   -6.272444|   -8.357556|    0.824007|    0.012156|
|         568|   -6.275368|   -8.358810|    0.824006|    0.012156|
|         569|   -6.278183|   -8.359755|    0.824006|    0.012156|
|         570|   -6.280878|   -8.360417|    0.824006|    0.012157|
|         571|   -6.283442|   -8.360838|    0.824006|    0.012157|
|         572|   -6.285865|   -8.361068|    0.824006|    0.012157|
|         573|   -6.288136|   -8.361166|    0.824005|    0.012157|
|         574|   -6.290246|   -8.361198|    0.824005|    0.012157|
|         575|   -6.292183|   -8.361231|    0.824005|    0.012157|
|         576|   -6.293936|   -8.361330|    0.824005|    0.012157|
|         577|   -6.295495|   -8.361558|    0.824005|    0.012157|
|         578|   -6.296853|   -8.361969|    0.824004|    0.012158|
|         579|   -6.298005|   -8.362609|    0.824004|    0.012158|
|         580|   -6.298948|   -8.363512|    0.824004|    0.012158|
|         581|   -6.299686|   -8.364701|    0.824004|    0.012158|
|         582|   -6.300224|   -8.366186|    0.824004|    0.012158|
|         583|   -6.300574|   -8.367964|    0.824003|    0.012158|
|         584|   -6.300751|   -8.370019|    0.824003|    0.012158|
|         585|   -6.300776|   -8.372323|    0.824003|    0.012158|
|         586|   -6.300672|   -8.374837|    0.824003|    0.012159|
|         587|   -6.300466|   -8.377512|    0.824002|    0.012159|
|         588|   -6.300189|   -8.380291|    0.824002|    0.012159|
|         589|   -6.299875|   -8.383113|    0.824002|    0.012159|
|         590|   -6.299558|   -8.385913|    0.824002|    0.012159|
|         591|   -6.299274|   -8.388627|    0.824001|    0.012159|
|         592|   -6.299061|   -8.391194|    0.824001|    0.012159|
|         593|   -6.298953|   -8.393559|    0.824001|    0.012159|
|         594|   -6.298986|   -8.395677|    0.824001|    0.012159|
|         595|   -6.299195|   -8.397513|    0.824001|    0.012159|
|         596|   -6.299611|   -8.399044|    0.824001|    0.012159|
|         597|   -6.300264|   -8.400262|    0.824000|    0.012159|
|         598|   -6.301181|   -8.401171|    0.824000|    0.012159|
|         599|   -6.302384|   -8.401785|    0.824000|    0.012159|
|         600|   -6.303896|   -8.402132|    0.824000|    0.012159|
|         601|   -6.305731|   -8.402244|    0.824000|    0.012159|
|         602|   -6.307903|   -8.402160|    0.824000|    0.012160|
|         603|   -6.310420|   -8.401923|    0.824000|    0.012160|
|         604|   -6.313285|   -8.401574|    0.824000|    0.012160|
|         605|   -6.316499|   -8.401153|    0.824000|    0.012160|
|         606|   -6.320054|   -8.400697|    0.823999|    0.012160|
|         607|   -6.323941|   -8.400238|    0.823999|    0.012160|
|         608|   -6.328142|   -8.399800|    0.823999|    0.012159|
|         609|   -6.332636|   -8.399405|    0.823999|    0.012159|
|         610|   -6.337395|   -8.399065|    0.823999|    0.012159|
|         611|   -6.342385|   -8.398790|    0.823999|    0.012159|
|         612|   -6.347568|   -8.398583|    0.823999|    0.012159|
|         613|   -6.352897|   -8.398445|    0.823999|    0.012159|
|         614|   -6.358324|   -8.398372|    0.823999|    0.012159|
|         615|   -6.363793|   -8.398363|    0.823999|    0.012159|
|         616|   -6.369245|   -8.398411|    0.823999|    0.012159|
|         617|   -6.374618|   -8.398513|    0.823999|    0.012159|
|         618|   -6.379850|   -8.398667|    0.823999|    0.012159|
|         619|   -6.384877|   -8.398872|    0.823999|    0.012159|
|         620|   -6.389638|   -8.399131|    0.823999|    0.012159|
|         621|   -6.394076|   -8.399448|    0.823999|    0.012159|
|         622|   -6.398139|   -8.399829|    0.823999|    0.012159|
|         623|   -6.401786|   -8.400284|    0.823999|    0.012159|
|         624|   -6.404982|   -8.400823|    0.823999|    0.012159|
|         625|   -6.407707|   -8.401458|    0.823999|    0.012159|
|         626|   -6.409950|   -8.402201|    0.823999|    0.012159|
|         627|   -6.411715|   -8.403064|    0.823999|    0.012158|
|         628|   -6.413019|   -8.404058|    0.823999|    0.012158|
|         629|   -6.413889|   -8.405194|    0.823999|    0.012158|
|         630|   -6.414366|   -8.406479|    0.823999|    0.012158|
|         631|   -6.414496|   -8.407918|    0.823999|    0.012158|
|         632|   -6.414336|   -8.409517|    0.823999|    0.012158|
|         633|   -6.413947|   -8.411274|    0.823999|    0.012158|
|         634|   -6.413390|   -8.413189|    0.823999|    0.012158|
|         635|   -6.412732|   -8.415259|    0.823999|    0.012158|
|         636|   -6.412037|   -8.417476|    0.823999|    0.012158|
|         637|   -6.411366|   -8.419836|    0.823999|    0.012158|
|         638|   -6.410779|   -8.422329|    0.823999|    0.012158|
|         639|   -6.410330|   -8.424949|    0.823999|    0.012157|
|         640|   -6.410069|   -8.427687|    0.823999|    0.012157|
|         641|   -6.410040|   -8.430538|    0.823999|    0.012157|
|         642|   -6.410283|   -8.433497|    0.823999|    0.012157|
|         643|   -6.410829|   -8.436559|    0.823999|    0.012157|
|         644|   -6.411708|   -8.439724|    0.823999|    0.012157|
|         645|   -6.412940|   -8.442992|    0.823999|    0.012157|
|         646|   -6.414544|   -8.446366|    0.823999|    0.012157|
|         647|   -6.416529|   -8.449852|    0.823999|    0.012157|
|         648|   -6.418904|   -8.453457|    0.823999|    0.012157|
|         649|   -6.421671|   -8.457190|    0.823999|    0.012157|
|         650|   -6.424828|   -8.461064|    0.823999|    0.012157|
|         651|   -6.428367|   -8.465089|    0.823999|    0.012157|
|         652|   -6.432280|   -8.469279|    0.823999|    0.012157|
|         653|   -6.436552|   -8.473646|    0.823999|    0.012157|
|         654|   -6.441166|   -8.478204|    0.823999|    0.012157|
|         655|   -6.446101|   -8.482964|    0.823999|    0.012157|
|         656|   -6.451332|   -8.487936|    0.824000|    0.012157|
|         657|   -6.456834|   -8.493130|    0.824000|    0.012157|
|         658|   -6.462575|   -8.498552|    0.824000|    0.012157|
|         659|   -6.468523|   -8.504208|    0.824000|    0.012157|
|         660|   -6.474644|   -8.510099|    0.824000|    0.012157|
|         661|   -6.480899|   -8.516227|    0.824000|    0.012157|
|         662|   -6.487250|   -8.522590|    0.824000|    0.012157|
|         663|   -6.493657|   -8.529183|    0.824000|    0.012157|
|         664|   -6.500076|   -8.536001|    0.824000|    0.012157|
|         665|   -6.506464|   -8.543036|    0.824001|    0.012157|
|         666|   -6.512780|   -8.550278|    0.824001|    0.012157|
|         667|   -6.518977|   -8.557716|    0.824001|    0.012157|
|         668|   -6.525015|   -8.565339|    0.824001|    0.012157|
|         669|   -6.530851|   -8.573134|    0.824001|    0.012157|
|         670|   -6.536444|   -8.581087|    0.824001|    0.012157|
|         671|   -6.541758|   -8.589186|    0.824001|    0.012157|
|         672|   -6.546758|   -8.597415|    0.824001|    0.012157|
|         673|   -6.551413|   -8.605763|    0.824001|    0.012157|
|         674|   -6.555697|   -8.614214|    0.824002|    0.012157|
|         675|   -6.559588|   -8.622756|    0.824002|    0.012157|
|         676|   -6.563071|   -8.631376|    0.824002|    0.012157|
|         677|   -6.566135|   -8.640061|    0.824002|    0.012157|
|         678|   -6.568777|   -8.648798|    0.824002|    0.012157|
|         679|   -6.571000|   -8.657574|    0.824002|    0.012157|
|         680|   -6.572812|   -8.666376|    0.824002|    0.012157|
|         681|   -6.574229|   -8.675190|    0.824002|    0.012157|
|         682|   -6.575273|   -8.684003|    0.824002|    0.012157|
|         683|   -6.575969|   -8.692799|    0.824002|    0.012158|
|         684|   -6.576350|   -8.701563|    0.824002|    0.012158|
|         685|   -6.576452|   -8.710279|    0.824002|    0.012158|
|         686|   -6.576313|   -8.718927|    0.824002|    0.012158|
|         687|   -6.575977|   -8.727491|    0.824002|    0.012158|
|         688|   -6.575486|   -8.735950|    0.824002|    0.012158|
|         689|   -6.574886|   -8.744285|    0.824002|    0.012158|
|         690|   -6.574224|   -8.752475|    0.824002|    0.012158|
|         691|   -6.573543|   -8.760500|    0.824002|    0.012158|
|         692|   -6.572887|   -8.768342|    0.824002|    0.012158|
|         693|   -6.572301|   -8.775982|    0.824002|    0.012158|
|         694|   -6.571823|   -8.783403|    0.824002|    0.012158|
|         695|   -6.571492|   -8.790592|    0.824002|    0.012158|
|         696|   -6.571344|   -8.797535|    0.824002|    0.012158|
|         697|   -6.571408|   -8.804224|    0.824002|    0.012159|
|         698|   -6.571715|   -8.810654|    0.824002|    0.012159|
|         699|   -6.572288|   -8.816822|    0.824002|    0.012159|
|         700|   -6.573147|   -8.822728|    0.824002|    0.012159|
|         701|   -6.574310|   -8.828377|    0.824002|    0.012159|
+-----------------------------------------------------------------------+
|Fixed CL Mode                           |Value                         |
+-----------------------------------------------------------------------+
|Current CL                              |0.824002                      |
|Target CL                               |0.824                         |
|Previous AOA                            |2.78037                       |
|Changed AoA by                          |-9.88369e-06                  |
+-----------------------------------------------------------------------+
+----------------------------------------------------------------+
|  Inner_Iter|    rms[Rho]|     rms[nu]|          CL|          CD|
+----------------------------------------------------------------+
|         702|   -5.198402|   -8.810714|    0.824002|    0.012159|
|         703|   -5.583516|   -8.827253|    0.824002|    0.012159|
|         704|   -5.828687|   -8.835289|    0.824002|    0.012159|
|         705|   -5.906121|   -8.841612|    0.824002|    0.012159|
|         706|   -5.956654|   -8.847310|    0.824002|    0.012159|
|         707|   -6.021624|   -8.852607|    0.824002|    0.012159|
|         708|   -6.100513|   -8.857539|    0.824002|    0.012159|
|         709|   -6.179786|   -8.862117|    0.824001|    0.012159|
|         710|   -6.244124|   -8.866351|    0.824001|    0.012159|
|         711|   -6.288054|   -8.870255|    0.824001|    0.012159|
|         712|   -6.315347|   -8.873864|    0.824001|    0.012159|
|         713|   -6.330736|   -8.877243|    0.824001|    0.012159|
|         714|   -6.337942|   -8.880478|    0.824001|    0.012159|
|         715|   -6.341411|   -8.883638|    0.824001|    0.012159|
|         716|   -6.345811|   -8.886764|    0.824001|    0.012159|
|         717|   -6.354174|   -8.889871|    0.824001|    0.012159|
|         718|   -6.367009|   -8.892967|    0.824001|    0.012159|
|         719|   -6.382737|   -8.896058|    0.824001|    0.012159|
|         720|   -6.398900|   -8.899149|    0.824001|    0.012159|
|         721|   -6.413572|   -8.902238|    0.824000|    0.012159|
|         722|   -6.426201|   -8.905308|    0.824000|    0.012159|
|         723|   -6.437417|   -8.908337|    0.824000|    0.012159|
|         724|   -6.448181|   -8.911295|    0.824000|    0.012159|
|         725|   -6.459059|   -8.914151|    0.824000|    0.012159|
|         726|   -6.470019|   -8.916882|    0.824000|    0.012159|
|         727|   -6.480629|   -8.919466|    0.824000|    0.012159|
|         728|   -6.490344|   -8.921889|    0.824000|    0.012159|
|         729|   -6.498714|   -8.924139|    0.824000|    0.012159|
|         730|   -6.505475|   -8.926211|    0.824000|    0.012159|
|         731|   -6.510588|   -8.928100|    0.823999|    0.012159|
|         732|   -6.514255|   -8.929810|    0.823999|    0.012159|
|         733|   -6.516901|   -8.931345|    0.823999|    0.012159|
|         734|   -6.519089|   -8.932715|    0.823999|    0.012159|
|         735|   -6.521386|   -8.933928|    0.823999|    0.012159|
|         736|   -6.524242|   -8.934999|    0.823999|    0.012159|
|         737|   -6.527917|   -8.935940|    0.823999|    0.012159|
|         738|   -6.532451|   -8.936770|    0.823999|    0.012159|
|         739|   -6.537686|   -8.937505|    0.823999|    0.012159|
|         740|   -6.543310|   -8.938169|    0.823999|    0.012159|
|         741|   -6.548930|   -8.938784|    0.823999|    0.012159|
|         742|   -6.554160|   -8.939377|    0.823999|    0.012158|
|         743|   -6.558716|   -8.939973|    0.823998|    0.012158|
|         744|   -6.562482|   -8.940603|    0.823998|    0.012158|
|         745|   -6.565534|   -8.941296|    0.823998|    0.012158|
|         746|   -6.568107|   -8.942079|    0.823998|    0.012158|
|         747|   -6.570513|   -8.942977|    0.823998|    0.012158|
|         748|   -6.573059|   -8.944014|    0.823998|    0.012158|
|         749|   -6.575973|   -8.945208|    0.823998|    0.012158|
|         750|   -6.579367|   -8.946574|    0.823998|    0.012158|
|         751|   -6.583234|   -8.948122|    0.823998|    0.012158|
|         752|   -6.587470|   -8.949857|    0.823998|    0.012158|
|         753|   -6.591913|   -8.951782|    0.823998|    0.012158|
|         754|   -6.596383|   -8.953893|    0.823998|    0.012158|
|         755|   -6.600718|   -8.956182|    0.823998|    0.012158|
|         756|   -6.604804|   -8.958638|    0.823998|    0.012158|
|         757|   -6.608579|   -8.961248|    0.823998|    0.012158|
|         758|   -6.612031|   -8.963993|    0.823998|    0.012158|
|         759|   -6.615183|   -8.966854|    0.823997|    0.012158|
|         760|   -6.618071|   -8.969809|    0.823997|    0.012158|
|         761|   -6.620731|   -8.972835|    0.823997|    0.012157|
|         762|   -6.623188|   -8.975913|    0.823997|    0.012157|
|         763|   -6.625447|   -8.979016|    0.823997|    0.012157|
|         764|   -6.627499|   -8.982123|    0.823997|    0.012157|
|         765|   -6.629323|   -8.985213|    0.823997|    0.012157|
|         766|   -6.630897|   -8.988267|    0.823997|    0.012157|
|         767|   -6.632198|   -8.991269|    0.823997|    0.012157|
|         768|   -6.633212|   -8.994202|    0.823997|    0.012157|
|         769|   -6.633929|   -8.997053|    0.823997|    0.012157|
|         770|   -6.634350|   -8.999810|    0.823997|    0.012157|
|         771|   -6.634481|   -9.002461|    0.823997|    0.012157|
|         772|   -6.634333|   -9.004997|    0.823997|    0.012157|
|         773|   -6.633921|   -9.007407|    0.823997|    0.012157|
|         774|   -6.633260|   -9.009684|    0.823997|    0.012157|
|         775|   -6.632371|   -9.011820|    0.823997|    0.012157|
|         776|   -6.631272|   -9.013805|    0.823997|    0.012157|
|         777|   -6.629986|   -9.015633|    0.823997|    0.012157|
|         778|   -6.628537|   -9.017299|    0.823997|    0.012157|
|         779|   -6.626950|   -9.018796|    0.823997|    0.012157|
|         780|   -6.625252|   -9.020121|    0.823997|    0.012157|
|         781|   -6.623468|   -9.021272|    0.823997|    0.012157|
|         782|   -6.621628|   -9.022250|    0.823997|    0.012157|
|         783|   -6.619757|   -9.023058|    0.823997|    0.012157|
|         784|   -6.617881|   -9.023701|    0.823997|    0.012157|
|         785|   -6.616027|   -9.024187|    0.823997|    0.012157|
|         786|   -6.614219|   -9.024526|    0.823997|    0.012157|
|         787|   -6.612478|   -9.024730|    0.823997|    0.012157|
|         788|   -6.610826|   -9.024813|    0.823997|    0.012157|
|         789|   -6.609284|   -9.024788|    0.823997|    0.012157|
|         790|   -6.607869|   -9.024669|    0.823997|    0.012158|
|         791|   -6.606599|   -9.024473|    0.823997|    0.012158|
|         792|   -6.605487|   -9.024211|    0.823997|    0.012158|
|         793|   -6.604547|   -9.023895|    0.823997|    0.012158|
|         794|   -6.603792|   -9.023537|    0.823997|    0.012158|
|         795|   -6.603230|   -9.023146|    0.823997|    0.012158|
|         796|   -6.602869|   -9.022726|    0.823997|    0.012158|
|         797|   -6.602717|   -9.022284|    0.823997|    0.012158|
|         798|   -6.602776|   -9.021822|    0.823997|    0.012158|
|         799|   -6.603050|   -9.021340|    0.823997|    0.012158|
|         800|   -6.603538|   -9.020840|    0.823997|    0.012158|
|         801|   -6.604240|   -9.020319|    0.823997|    0.012158|
+-----------------------------------------------------------------------+
|Fixed CL Mode                           |Value                         |
+-----------------------------------------------------------------------+
|Current CL                              |0.823997                      |
|Target CL                               |0.824                         |
|Previous AOA                            |2.78036                       |
|Changed AoA by                          |1.34187e-05                   |
+-----------------------------------------------------------------------+
+----------------------------------------------------------------+
|  Inner_Iter|    rms[Rho]|     rms[nu]|          CL|          CD|
+----------------------------------------------------------------+
|         802|   -5.065473|   -8.929540|    0.823997|    0.012158|
|         803|   -5.449209|   -8.970375|    0.823997|    0.012158|
|         804|   -5.691568|   -8.983547|    0.823997|    0.012158|
|         805|   -5.769388|   -8.990567|    0.823997|    0.012158|
|         806|   -5.822138|   -8.995184|    0.823998|    0.012158|
|         807|   -5.890213|   -8.998378|    0.823998|    0.012158|
|         808|   -5.973553|   -9.000571|    0.823998|    0.012159|
|         809|   -6.059097|   -9.002050|    0.823998|    0.012159|
|         810|   -6.130848|   -9.003013|    0.823998|    0.012159|
|         811|   -6.181667|   -9.003553|    0.823998|    0.012159|
|         812|   -6.214157|   -9.003747|    0.823998|    0.012159|
|         813|   -6.232654|   -9.003734|    0.823998|    0.012159|
|         814|   -6.241021|   -9.003682|    0.823998|    0.012159|
|         815|   -6.244431|   -9.003707|    0.823998|    0.012159|
|         816|   -6.248512|   -9.003850|    0.823998|    0.012159|
|         817|   -6.256979|   -9.004103|    0.823998|    0.012159|
|         818|   -6.270602|   -9.004464|    0.823997|    0.012159|
|         819|   -6.287723|   -9.004950|    0.823997|    0.012159|
|         820|   -6.305619|   -9.005595|    0.823997|    0.012159|
|         821|   -6.322103|   -9.006425|    0.823997|    0.012159|
|         822|   -6.336523|   -9.007438|    0.823997|    0.012159|
|         823|   -6.349587|   -9.008610|    0.823997|    0.012159|
|         824|   -6.362382|   -9.009899|    0.823997|    0.012159|
|         825|   -6.375521|   -9.011262|    0.823997|    0.012159|
|         826|   -6.388900|   -9.012658|    0.823997|    0.012159|
|         827|   -6.401930|   -9.014054|    0.823997|    0.012159|
|         828|   -6.413893|   -9.015419|    0.823997|    0.012159|
|         829|   -6.424201|   -9.016721|    0.823997|    0.012159|
|         830|   -6.432506|   -9.017927|    0.823997|    0.012159|
|         831|   -6.438750|   -9.018999|    0.823997|    0.012159|
|         832|   -6.443180|   -9.019894|    0.823997|    0.012159|
|         833|   -6.446318|   -9.020563|    0.823997|    0.012159|
|         834|   -6.448850|   -9.020951|    0.823996|    0.012159|
|         835|   -6.451465|   -9.020998|    0.823996|    0.012159|
|         836|   -6.454697|   -9.020643|    0.823996|    0.012159|
|         837|   -6.458839|   -9.019824|    0.823996|    0.012159|
|         838|   -6.463914|   -9.018488|    0.823996|    0.012159|
|         839|   -6.469696|   -9.016591|    0.823996|    0.012159|
|         840|   -6.475771|   -9.014099|    0.823996|    0.012159|
|         841|   -6.481629|   -9.010994|    0.823996|    0.012159|
|         842|   -6.486775|   -9.007276|    0.823996|    0.012159|
|         843|   -6.490860|   -9.002959|    0.823996|    0.012159|
|         844|   -6.493770|   -8.998074|    0.823996|    0.012159|
|         845|   -6.495650|   -8.992665|    0.823996|    0.012159|
|         846|   -6.496853|   -8.986789|    0.823995|    0.012159|
|         847|   -6.497826|   -8.980511|    0.823995|    0.012159|
|         848|   -6.498992|   -8.973903|    0.823995|    0.012159|
|         849|   -6.500665|   -8.967043|    0.823995|    0.012159|
|         850|   -6.503006|   -8.960009|    0.823995|    0.012159|
|         851|   -6.506027|   -8.952882|    0.823995|    0.012159|
|         852|   -6.509620|   -8.945742|    0.823995|    0.012159|
|         853|   -6.513612|   -8.938666|    0.823995|    0.012159|
|         854|   -6.517816|   -8.931734|    0.823995|    0.012159|
|         855|   -6.522076|   -8.925016|    0.823995|    0.012159|
|         856|   -6.526296|   -8.918579|    0.823995|    0.012159|
|         857|   -6.530446|   -8.912487|    0.823995|    0.012159|
|         858|   -6.534561|   -8.906796|    0.823995|    0.012159|
|         859|   -6.538712|   -8.901558|    0.823995|    0.012159|
|         860|   -6.542986|   -8.896817|    0.823995|    0.012159|
|         861|   -6.547466|   -8.892611|    0.823996|    0.012158|
|         862|   -6.552211|   -8.888971|    0.823996|    0.012158|
|         863|   -6.557256|   -8.885921|    0.823996|    0.012158|
|         864|   -6.562608|   -8.883479|    0.823996|    0.012158|
|         865|   -6.568252|   -8.881655|    0.823996|    0.012158|
|         866|   -6.574161|   -8.880451|    0.823996|    0.012158|
|         867|   -6.580300|   -8.879860|    0.823996|    0.012158|
|         868|   -6.586630|   -8.879872|    0.823996|    0.012158|
|         869|   -6.593114|   -8.880462|    0.823996|    0.012158|
|         870|   -6.599713|   -8.881602|    0.823996|    0.012158|
|         871|   -6.606389|   -8.883252|    0.823997|    0.012158|
|         872|   -6.613098|   -8.885365|    0.823997|    0.012158|
|         873|   -6.619794|   -8.887884|    0.823997|    0.012158|
|         874|   -6.626424|   -8.890748|    0.823997|    0.012158|
|         875|   -6.632929|   -8.893886|    0.823997|    0.012158|
|         876|   -6.639249|   -8.897223|    0.823997|    0.012158|
|         877|   -6.645318|   -8.900681|    0.823997|    0.012158|
|         878|   -6.651072|   -8.904179|    0.823997|    0.012158|
|         879|   -6.656446|   -8.907639|    0.823997|    0.012158|
|         880|   -6.661384|   -8.910987|    0.823997|    0.012158|
|         881|   -6.665832|   -8.914157|    0.823998|    0.012158|
|         882|   -6.669748|   -8.917091|    0.823998|    0.012158|
|         883|   -6.673098|   -8.919745|    0.823998|    0.012158|
|         884|   -6.675859|   -8.922088|    0.823998|    0.012158|
|         885|   -6.678022|   -8.924107|    0.823998|    0.012158|
|         886|   -6.679588|   -8.925802|    0.823998|    0.012158|
|         887|   -6.680572|   -8.927188|    0.823998|    0.012158|
|         888|   -6.681001|   -8.928294|    0.823998|    0.012158|
|         889|   -6.680909|   -8.929159|    0.823998|    0.012158|
|         890|   -6.680342|   -8.929830|    0.823998|    0.012158|
|         891|   -6.679351|   -8.930360|    0.823998|    0.012158|
|         892|   -6.677992|   -8.930802|    0.823998|    0.012158|
|         893|   -6.676324|   -8.931211|    0.823998|    0.012158|
|         894|   -6.674406|   -8.931635|    0.823998|    0.012158|
|         895|   -6.672297|   -8.932119|    0.823998|    0.012158|
|         896|   -6.670055|   -8.932701|    0.823998|    0.012158|
|         897|   -6.667733|   -8.933410|    0.823998|    0.012158|
|         898|   -6.665382|   -8.934267|    0.823998|    0.012158|
|         899|   -6.663048|   -8.935285|    0.823998|    0.012158|
|         900|   -6.660775|   -8.936466|    0.823998|    0.012158|
|         901|   -6.658599|   -8.937805|    0.823998|    0.012158|
+-----------------------------------------------------------------------+
|Fixed CL Mode                           |Value                         |
+-----------------------------------------------------------------------+
|Current CL                              |0.823998                      |
|Target CL                               |0.824                         |
|Previous AOA                            |2.78037                       |
|Changed AoA by                          |1.13599e-05                   |
+-----------------------------------------------------------------------+
+----------------------------------------------------------------+
|  Inner_Iter|    rms[Rho]|     rms[nu]|          CL|          CD|
+----------------------------------------------------------------+
|         902|   -5.137817|   -8.890089|    0.823998|    0.012158|
|         903|   -5.521149|   -8.915346|    0.823998|    0.012158|
|         904|   -5.761960|   -8.924580|    0.823998|    0.012158|
|         905|   -5.838551|   -8.930505|    0.823997|    0.012158|
|         906|   -5.890476|   -8.935155|    0.823997|    0.012158|
|         907|   -5.957560|   -8.939020|    0.823997|    0.012158|
[...]
|        5298|   -6.042877|   -7.928893|    0.824237|    0.012163|
|        5299|   -6.049419|   -7.933033|    0.824237|    0.012163|
|        5300|   -6.055621|   -7.937235|    0.824237|    0.012163|
|        5301|   -6.061444|   -7.941516|    0.824237|    0.012163|
|        5302|   -6.066863|   -7.945887|    0.824237|    0.012163|
|        5303|   -6.071858|   -7.950358|    0.824237|    0.012163|
|        5304|   -6.076422|   -7.954935|    0.824237|    0.012163|
|        5305|   -6.080558|   -7.959621|    0.824238|    0.012163|
|        5306|   -6.084279|   -7.964418|    0.824238|    0.012163|
|        5307|   -6.087607|   -7.969326|    0.824238|    0.012163|
|        5308|   -6.090573|   -7.974343|    0.824238|    0.012163|
|        5309|   -6.093213|   -7.979466|    0.824238|    0.012162|
|        5310|   -6.095572|   -7.984694|    0.824238|    0.012162|
|        5311|   -6.097696|   -7.990022|    0.824238|    0.012162|
|        5312|   -6.099635|   -7.995449|    0.824238|    0.012162|
|        5313|   -6.101440|   -8.000972|    0.824238|    0.012163|
|        5314|   -6.103160|   -8.006589|    0.824239|    0.012163|
|        5315|   -6.104843|   -8.012299|    0.824239|    0.012163|
|        5316|   -6.106535|   -8.018102|    0.824239|    0.012163|
|        5317|   -6.108278|   -8.023998|    0.824239|    0.012163|
|        5318|   -6.110107|   -8.029987|    0.824239|    0.012163|
|        5319|   -6.112056|   -8.036067|    0.824239|    0.012163|
|        5320|   -6.114149|   -8.042239|    0.824239|    0.012163|
|        5321|   -6.116407|   -8.048503|    0.824240|    0.012163|
|        5322|   -6.118845|   -8.054861|    0.824240|    0.012163|
|        5323|   -6.121469|   -8.061308|    0.824240|    0.012163|
|        5324|   -6.124282|   -8.067844|    0.824240|    0.012163|
|        5325|   -6.127279|   -8.074463|    0.824240|    0.012163|
|        5326|   -6.130448|   -8.081161|    0.824240|    0.012163|
|        5327|   -6.133774|   -8.087929|    0.824241|    0.012163|
|        5328|   -6.137233|   -8.094754|    0.824241|    0.012163|
|        5329|   -6.140799|   -8.101623|    0.824241|    0.012163|
|        5330|   -6.144443|   -8.108527|    0.824241|    0.012164|
|        5331|   -6.148127|   -8.115457|    0.824241|    0.012164|
|        5332|   -6.151815|   -8.122403|    0.824241|    0.012164|
|        5333|   -6.155466|   -8.129355|    0.824242|    0.012164|
|        5334|   -6.159040|   -8.136303|    0.824242|    0.012164|
|        5335|   -6.162500|   -8.143237|    0.824242|    0.012164|
|        5336|   -6.165810|   -8.150147|    0.824242|    0.012164|
|        5337|   -6.168935|   -8.157022|    0.824242|    0.012164|
|        5338|   -6.171850|   -8.163855|    0.824242|    0.012164|
|        5339|   -6.174532|   -8.170639|    0.824243|    0.012164|
|        5340|   -6.176968|   -8.177367|    0.824243|    0.012164|
|        5341|   -6.179152|   -8.184038|    0.824243|    0.012165|
|        5342|   -6.181085|   -8.190649|    0.824243|    0.012165|
|        5343|   -6.182774|   -8.197204|    0.824243|    0.012165|
|        5344|   -6.184239|   -8.203707|    0.824243|    0.012165|
|        5345|   -6.185504|   -8.210165|    0.824243|    0.012165|
|        5346|   -6.186598|   -8.216585|    0.824244|    0.012165|
|        5347|   -6.187558|   -8.222978|    0.824244|    0.012165|
|        5348|   -6.188423|   -8.229353|    0.824244|    0.012165|
|        5349|   -6.189234|   -8.235720|    0.824244|    0.012165|
|        5350|   -6.190035|   -8.242087|    0.824244|    0.012165|
|        5351|   -6.190868|   -8.248468|    0.824244|    0.012165|
|        5352|   -6.191778|   -8.254874|    0.824244|    0.012165|
|        5353|   -6.192805|   -8.261314|    0.824244|    0.012165|
|        5354|   -6.193989|   -8.267802|    0.824244|    0.012165|
|        5355|   -6.195364|   -8.274346|    0.824244|    0.012165|
|        5356|   -6.196963|   -8.280957|    0.824244|    0.012165|
|        5357|   -6.198813|   -8.287642|    0.824244|    0.012165|
|        5358|   -6.200938|   -8.294409|    0.824245|    0.012165|
|        5359|   -6.203356|   -8.301262|    0.824245|    0.012165|
|        5360|   -6.206083|   -8.308204|    0.824245|    0.012165|
|        5361|   -6.209128|   -8.315236|    0.824245|    0.012165|
|        5362|   -6.212494|   -8.322358|    0.824245|    0.012165|
|        5363|   -6.216183|   -8.329565|    0.824245|    0.012165|
|        5364|   -6.220189|   -8.336854|    0.824245|    0.012165|
|        5365|   -6.224501|   -8.344215|    0.824245|    0.012165|
|        5366|   -6.229106|   -8.351641|    0.824245|    0.012165|
|        5367|   -6.233983|   -8.359118|    0.824245|    0.012165|
|        5368|   -6.239109|   -8.366635|    0.824245|    0.012165|
|        5369|   -6.244455|   -8.374176|    0.824245|    0.012165|
|        5370|   -6.249987|   -8.381724|    0.824245|    0.012165|
|        5371|   -6.255668|   -8.389261|    0.824245|    0.012165|
|        5372|   -6.261459|   -8.396766|    0.824245|    0.012165|
|        5373|   -6.267314|   -8.404217|    0.824245|    0.012165|
|        5374|   -6.273189|   -8.411590|    0.824245|    0.012165|
|        5375|   -6.279035|   -8.418860|    0.824245|    0.012165|
|        5376|   -6.284804|   -8.426000|    0.824245|    0.012165|
|        5377|   -6.290447|   -8.432982|    0.824245|    0.012165|
|        5378|   -6.295919|   -8.439780|    0.824245|    0.012165|
|        5379|   -6.301174|   -8.446363|    0.824245|    0.012165|
|        5380|   -6.306172|   -8.452704|    0.824245|    0.012165|
|        5381|   -6.310877|   -8.458778|    0.824245|    0.012165|
|        5382|   -6.315258|   -8.464563|    0.824245|    0.012164|
|        5383|   -6.319292|   -8.470026|    0.824245|    0.012164|
|        5384|   -6.322960|   -8.475138|    0.824245|    0.012164|
|        5385|   -6.326254|   -8.479869|    0.824245|    0.012164|
|        5386|   -6.329169|   -8.484193|    0.824245|    0.012164|
|        5387|   -6.331710|   -8.488083|    0.824245|    0.012164|
|        5388|   -6.333886|   -8.491512|    0.824246|    0.012164|
|        5389|   -6.335711|   -8.494458|    0.824246|    0.012164|
|        5390|   -6.337205|   -8.496898|    0.824246|    0.012164|
|        5391|   -6.338390|   -8.498813|    0.824246|    0.012164|
|        5392|   -6.339292|   -8.500186|    0.824246|    0.012164|
|        5393|   -6.339936|   -8.501005|    0.824246|    0.012163|
|        5394|   -6.340349|   -8.501260|    0.824246|    0.012163|
|        5395|   -6.340556|   -8.500948|    0.824247|    0.012163|
|        5396|   -6.340583|   -8.500070|    0.824247|    0.012163|
|        5397|   -6.340452|   -8.498633|    0.824247|    0.012163|
|        5398|   -6.340185|   -8.496650|    0.824247|    0.012163|
|        5399|   -6.339801|   -8.494141|    0.824247|    0.012163|
|        5400|   -6.339316|   -8.491131|    0.824248|    0.012163|
|        5401|   -6.338745|   -8.487653|    0.824248|    0.012163|
|        5402|   -6.338100|   -8.483742|    0.824248|    0.012163|
|        5403|   -6.337391|   -8.479440|    0.824248|    0.012163|
|        5404|   -6.336626|   -8.474791|    0.824248|    0.012162|
|        5405|   -6.335814|   -8.469843|    0.824249|    0.012162|
|        5406|   -6.334959|   -8.464645|    0.824249|    0.012162|
|        5407|   -6.334066|   -8.459246|    0.824249|    0.012162|
|        5408|   -6.333139|   -8.453698|    0.824249|    0.012162|
|        5409|   -6.332183|   -8.448050|    0.824250|    0.012162|
|        5410|   -6.331200|   -8.442347|    0.824250|    0.012162|
|        5411|   -6.330193|   -8.436631|    0.824250|    0.012162|
|        5412|   -6.329167|   -8.430941|    0.824250|    0.012162|
|        5413|   -6.328124|   -8.425314|    0.824251|    0.012162|
|        5414|   -6.327069|   -8.419780|    0.824251|    0.012162|
|        5415|   -6.326006|   -8.414368|    0.824251|    0.012162|
|        5416|   -6.324939|   -8.409100|    0.824251|    0.012162|
|        5417|   -6.323874|   -8.403997|    0.824252|    0.012161|
|        5418|   -6.322815|   -8.399074|    0.824252|    0.012161|
|        5419|   -6.321771|   -8.394344|    0.824252|    0.012161|
|        5420|   -6.320746|   -8.389815|    0.824252|    0.012161|
|        5421|   -6.319750|   -8.385493|    0.824252|    0.012161|
|        5422|   -6.318790|   -8.381379|    0.824253|    0.012161|
|        5423|   -6.317876|   -8.377475|    0.824253|    0.012161|
|        5424|   -6.317017|   -8.373777|    0.824253|    0.012161|
|        5425|   -6.316224|   -8.370281|    0.824253|    0.012161|
|        5426|   -6.315508|   -8.366981|    0.824253|    0.012161|
|        5427|   -6.314880|   -8.363871|    0.824254|    0.012161|
|        5428|   -6.314355|   -8.360942|    0.824254|    0.012161|
|        5429|   -6.313945|   -8.358185|    0.824254|    0.012161|
|        5430|   -6.313663|   -8.355591|    0.824254|    0.012161|
|        5431|   -6.313524|   -8.353149|    0.824254|    0.012161|
|        5432|   -6.313542|   -8.350852|    0.824255|    0.012161|
|        5433|   -6.313732|   -8.348688|    0.824255|    0.012161|
|        5434|   -6.314108|   -8.346650|    0.824255|    0.012161|
|        5435|   -6.314684|   -8.344728|    0.824255|    0.012161|
|        5436|   -6.315474|   -8.342915|    0.824255|    0.012161|
|        5437|   -6.316490|   -8.341203|    0.824255|    0.012161|
|        5438|   -6.317744|   -8.339585|    0.824255|    0.012161|
|        5439|   -6.319246|   -8.338055|    0.824255|    0.012161|
|        5440|   -6.321007|   -8.336608|    0.824256|    0.012161|
|        5441|   -6.323034|   -8.335239|    0.824256|    0.012162|
|        5442|   -6.325332|   -8.333943|    0.824256|    0.012162|
|        5443|   -6.327904|   -8.332715|    0.824256|    0.012162|
|        5444|   -6.330753|   -8.331553|    0.824256|    0.012162|
|        5445|   -6.333876|   -8.330453|    0.824256|    0.012162|
|        5446|   -6.337269|   -8.329415|    0.824256|    0.012162|
|        5447|   -6.340926|   -8.328434|    0.824256|    0.012162|
|        5448|   -6.344835|   -8.327509|    0.824256|    0.012162|
|        5449|   -6.348983|   -8.326637|    0.824256|    0.012162|
|        5450|   -6.353352|   -8.325818|    0.824256|    0.012162|
|        5451|   -6.357922|   -8.325049|    0.824256|    0.012162|
|        5452|   -6.362669|   -8.324329|    0.824257|    0.012162|
|        5453|   -6.367564|   -8.323655|    0.824257|    0.012162|
|        5454|   -6.372576|   -8.323027|    0.824257|    0.012162|
|        5455|   -6.377671|   -8.322443|    0.824257|    0.012163|
|        5456|   -6.382810|   -8.321900|    0.824257|    0.012163|
|        5457|   -6.387952|   -8.321398|    0.824257|    0.012163|
|        5458|   -6.393057|   -8.320935|    0.824257|    0.012163|
|        5459|   -6.398079|   -8.320510|    0.824257|    0.012163|
|        5460|   -6.402973|   -8.320120|    0.824257|    0.012163|
|        5461|   -6.407694|   -8.319766|    0.824257|    0.012163|
|        5462|   -6.412200|   -8.319444|    0.824257|    0.012163|
|        5463|   -6.416448|   -8.319155|    0.824257|    0.012163|
|        5464|   -6.420400|   -8.318897|    0.824257|    0.012163|
|        5465|   -6.424022|   -8.318668|    0.824257|    0.012163|
|        5466|   -6.427285|   -8.318467|    0.824257|    0.012163|
|        5467|   -6.430166|   -8.318292|    0.824257|    0.012163|
|        5468|   -6.432648|   -8.318143|    0.824256|    0.012164|
|        5469|   -6.434723|   -8.318017|    0.824256|    0.012164|
|        5470|   -6.436388|   -8.317914|    0.824256|    0.012164|
|        5471|   -6.437650|   -8.317830|    0.824256|    0.012164|
|        5472|   -6.438521|   -8.317765|    0.824256|    0.012164|
|        5473|   -6.439021|   -8.317716|    0.824256|    0.012164|
|        5474|   -6.439173|   -8.317681|    0.824256|    0.012164|
|        5475|   -6.439008|   -8.317658|    0.824256|    0.012164|
|        5476|   -6.438559|   -8.317645|    0.824256|    0.012164|
|        5477|   -6.437864|   -8.317639|    0.824256|    0.012164|
|        5478|   -6.436959|   -8.317638|    0.824256|    0.012164|
|        5479|   -6.435886|   -8.317639|    0.824256|    0.012164|
|        5480|   -6.434682|   -8.317640|    0.824256|    0.012164|
|        5481|   -6.433388|   -8.317638|    0.824256|    0.012164|
|        5482|   -6.432041|   -8.317630|    0.824256|    0.012164|
|        5483|   -6.430677|   -8.317614|    0.824256|    0.012164|
|        5484|   -6.429330|   -8.317588|    0.824256|    0.012164|
|        5485|   -6.428030|   -8.317549|    0.824256|    0.012164|
|        5486|   -6.426807|   -8.317496|    0.824256|    0.012164|
|        5487|   -6.425687|   -8.317426|    0.824255|    0.012164|
|        5488|   -6.424693|   -8.317338|    0.824255|    0.012164|
|        5489|   -6.423845|   -8.317230|    0.824255|    0.012164|
|        5490|   -6.423162|   -8.317101|    0.824255|    0.012164|
|        5491|   -6.422657|   -8.316952|    0.824255|    0.012164|
|        5492|   -6.422344|   -8.316779|    0.824255|    0.012164|
|        5493|   -6.422234|   -8.316585|    0.824255|    0.012164|
|        5494|   -6.422334|   -8.316367|    0.824255|    0.012164|
|        5495|   -6.422651|   -8.316126|    0.824255|    0.012164|
|        5496|   -6.423188|   -8.315862|    0.824255|    0.012164|
|        5497|   -6.423949|   -8.315577|    0.824255|    0.012164|
|        5498|   -6.424935|   -8.315270|    0.824255|    0.012164|
|        5499|   -6.426146|   -8.314943|    0.824256|    0.012150|
+-----------------------------------------------------------------------+
|Fixed CL Mode (Finite Difference)       |Value                         |
+-----------------------------------------------------------------------+
|Delta CL / Delta AoA                    |0.255705                      |
|Delta CD / Delta CL                     |0.0204895                     |
|Delta CMz / Delta CL                    |0.0202863                     |
+-----------------------------------------------------------------------+
Writing Flow Meta-Data file: flow.meta

----------------------------- Solver Exit -------------------------------

Maximum number of iterations reached (ITER = 5500) before convergence.
+-----------------------------------------------------------------------+
|      Convergence Field     |     Value    |   Criterion  |  Converged |
+-----------------------------------------------------------------------+
|                    rms[Rho]|      -6.42615|         < -12|          No|
+-----------------------------------------------------------------------+
-------------------------------------------------------------------------

--------------------------- Finalizing Solver ---------------------------
Deleted CNumerics container.
Deleted CIntegration container.
Deleted CSolver container.
Deleted CIteration container.
Deleted CInterface container.
Deleted CGeometry container.
Deleted CFreeFormDefBox class.
Deleted CSurfaceMovement class.
Deleted CVolumetricMovement class.
Deleted CConfig container.
Deleted nInst container.
Deleted COutput class.
-------------------------------------------------------------------------

------------------------- Exit Success (SU2_CFD) ------------------------


-------------------------------------------------------------------------
|    ___ _   _ ___                                                      |
|   / __| | | |_  )   Release 8.0.0 "Harrier"                           |
|   \__ \ |_| |/ /                                                      |
|   |___/\___//___|   Suite (Solution Exporting Code)                   |
|                                                                       |
-------------------------------------------------------------------------
| SU2 Project Website: https://su2code.github.io                        |
|                                                                       |
| The SU2 Project is maintained by the SU2 Foundation                   |
| (http://su2foundation.org)                                            |
-------------------------------------------------------------------------
| Copyright 2012-2023, SU2 Contributors                                 |
|                                                                       |
| SU2 is free software; you can redistribute it and/or                  |
| modify it under the terms of the GNU Lesser General Public            |
| License as published by the Free Software Foundation; either          |
| version 2.1 of the License, or (at your option) any later version.    |
|                                                                       |
| SU2 is distributed in the hope that it will be useful,                |
| but WITHOUT ANY WARRANTY; without even the implied warranty of        |
| MERCHANTABILITY or FITNESS FOR A PARTICULAR PURPOSE. See the GNU      |
| Lesser General Public License for more details.                       |
|                                                                       |
| You should have received a copy of the GNU Lesser General Public      |
| License along with SU2. If not, see <http://www.gnu.org/licenses/>.   |
-------------------------------------------------------------------------

----------------- Physical Case Definition ( Zone 0 ) -------------------
Input mesh file name: mesh_RAE2822_turb_deform.su2

-------------------- Output Information ( Zone 0 ) ----------------------
The tabular file format is CSV (.csv).
Flow variables file name: flow.

------------- Config File Boundary Information ( Zone 0 ) ---------------
+-----------------------------------------------------------------------+
|                        Marker Type|                        Marker Name|
+-----------------------------------------------------------------------+
|                          Far-field|                           FARFIELD|
+-----------------------------------------------------------------------+
|                     Heat flux wall|                            AIRFOIL|
+-----------------------------------------------------------------------+
Two dimensional problem.
13937 grid points before partitioning.
22842 volume elements before partitioning.
2 surface markers.
192 boundary elements in index 0 (Marker = AIRFOIL).
40 boundary elements in index 1 (Marker = FARFIELD).
Executing the partitioning functions.
Building the graph adjacency structure.
Calling ParMETIS... graph partitioning complete (831 edge cuts).
Distributing ParMETIS coloring.
Rebalancing vertices.
Rebalancing volume element connectivity.
Rebalancing markers and surface elements.
14875 vertices including ghost points. 
23674 interior elements including halo cells. 
18780 triangles.
4894 quadrilaterals.
Establishing MPI communication patterns.
Identify vertices.
Storing a mapping from global to local point index.

------------------------- Solution Postprocessing -----------------------
Reading and storing the solution from restart_flow.
Volume output fields: COORDINATES, SOLUTION
  Info: Ignoring the following screen output fields:
  RMS_DENSITY, RMS_NU_TILDE, LIFT, DRAG
Screen output fields: INNER_ITER
  Info: Ignoring the following history output groups:
  RMS_RES, AERO_COEFF
History output group(s): ITER
Warning: No (valid) fields chosen for convergence monitoring. Convergence monitoring inactive.
Warning: No (valid) fields chosen for time convergence monitoring. Time convergence monitoring inactive.
|Paraview                           |flow.vtu                           |
|Paraview surface                   |surface_flow.vtu                   |
|CSV file                           |surface_flow.csv                   |

------------------------- Finalize Solver -------------------------
Deleted CGeometry container.
Deleted CSolver class.
Deleted CConfig container.
Deleted COutput class.

Completed in 0.015097 seconds on 6 cores.

------------------------- Exit Success (SU2_SOL) ------------------------

