
-------------------------------------------------------------------------
|    ___ _   _ ___                                                      |
|   / __| | | |_  )   Release 8.0.0 "Harrier"                           |
|   \__ \ |_| |/ /                                                      |
|   |___/\___//___|   Suite (Computational Fluid Dynamics Code)         |
|                                                                       |
-------------------------------------------------------------------------
| SU2 Project Website: https://su2code.github.io                        |
|                                                                       |
| The SU2 Project is maintained by the SU2 Foundation                   |
| (http://su2foundation.org)                                            |
-------------------------------------------------------------------------
| Copyright 2012-2023, SU2 Contributors                                 |
|                                                                       |
| SU2 is free software; you can redistribute it and/or                  |
| modify it under the terms of the GNU Lesser General Public            |
| License as published by the Free Software Foundation; either          |
| version 2.1 of the License, or (at your option) any later version.    |
|                                                                       |
| SU2 is distributed in the hope that it will be useful,                |
| but WITHOUT ANY WARRANTY; without even the implied warranty of        |
| MERCHANTABILITY or FITNESS FOR A PARTICULAR PURPOSE. See the GNU      |
| Lesser General Public License for more details.                       |
|                                                                       |
| You should have received a copy of the GNU Lesser General Public      |
| License along with SU2. If not, see <http://www.gnu.org/licenses/>.   |
-------------------------------------------------------------------------

Parsing config file for zone 0

----------------- Physical Case Definition ( Zone 0 ) -------------------
Compressible RANS equations.
Turbulence model: Spalart-Allmaras-noft2
Hybrid RANS/LES: No Hybrid RANS/LES
Mach number: 0.734.
Angle of attack (AoA): 2.31 deg, and angle of sideslip (AoS): 0 deg.
Reynolds number: 6.5e+06. Reference length 1.
Fixed CL mode, target value: 0.824.
Reading and writing binary SU2 native restart files.
Read flow solution from: solution_flow.dat.
Dimensional simulation.
The reference area is 1 m^2.
The semi-span will be computed using the max y(3D) value.
The reference length is 1 m.
Reference origin for moment evaluation is (0.25, 0, 0).
Surface(s) where the force coefficients are evaluated: AIRFOIL.

Surface(s) plotted in the output file: AIRFOIL.
Surface(s) affected by the design variables: AIRFOIL.
Input mesh file name: mesh_RAE2822_turb_deform.su2

--------------- Space Numerical Integration ( Zone 0 ) ------------------
Jameson-Schmidt-Turkel scheme (2nd order in space) for the flow inviscid terms.
JST viscous coefficients (2nd & 4th): 0.5, 0.02.
The method includes a grid stretching correction (p = 0.3).
Scalar upwind solver for the turbulence model.
First order integration in space.
Average of gradients with correction (viscous flow terms).
Average of gradients with correction (viscous turbulence terms).
Gradient for viscous and source terms: inverse-distance weighted Least-Squares.

--------------- Time Numerical Integration  ( Zone 0 ) ------------------
Local time stepping (steady state simulation).
Euler implicit method for the flow equations.
FGMRES is used for solving the linear system.
Using a ILU(0) preconditioning.
Convergence criteria of the linear solver: 1e-06.
Max number of linear iterations: 10.
No CFL adaptation.
Courant-Friedrichs-Lewy number:       10
Euler implicit time integration for the turbulence model.

------------------ Convergence Criteria  ( Zone 0 ) ---------------------
Maximum number of solver subiterations: 5500.
Begin convergence monitoring at iteration 10.
Residual minimum value: 1e-12.
Cauchy series min. value: 1e-06.
Number of Cauchy elements: 100.
Begin windowed time average at iteration 0.

-------------------- Output Information ( Zone 0 ) ----------------------
File writing frequency: 
+------------------------------------+
|                     File| Frequency|
+------------------------------------+
|                  RESTART|     10000|
|                 PARAVIEW|     10000|
|         SURFACE_PARAVIEW|     10000|
|              SURFACE_CSV|     10000|
+------------------------------------+
Writing the convergence history file every 1 inner iterations.
Writing the screen convergence history every 1 inner iterations.
The tabular file format is CSV (.csv).
Convergence history file name: history_direct.
Forces breakdown file name: forces_breakdown.dat.
Surface file name: surface_flow.
Volume file name: flow.
Restart file name: restart_flow.dat.

------------- Config File Boundary Information ( Zone 0 ) ---------------
+-----------------------------------------------------------------------+
|                        Marker Type|                        Marker Name|
+-----------------------------------------------------------------------+
|                          Far-field|                           FARFIELD|
+-----------------------------------------------------------------------+
|                     Heat flux wall|                            AIRFOIL|
+-----------------------------------------------------------------------+

-------------------- Output Preprocessing ( Zone 0 ) --------------------

WARNING: SURFACE_PRESSURE_DROP can only be computed for at least 2 surfaces (outlet, inlet, ...)

Screen output fields: INNER_ITER, RMS_DENSITY, RMS_NU_TILDE, LIFT, DRAG
History output group(s): ITER, RMS_RES, AERO_COEFF
Convergence field(s): RMS_DENSITY
Warning: No (valid) fields chosen for time convergence monitoring. Time convergence monitoring inactive.
Volume output fields: COORDINATES, SOLUTION, PRIMITIVE

------------------- Geometry Preprocessing ( Zone 0 ) -------------------
Two dimensional problem.
13937 grid points before partitioning.
22842 volume elements before partitioning.
2 surface markers.
192 boundary elements in index 0 (Marker = AIRFOIL).
40 boundary elements in index 1 (Marker = FARFIELD).
Executing the partitioning functions.
Building the graph adjacency structure.
Calling ParMETIS... graph partitioning complete (831 edge cuts).
Distributing ParMETIS coloring.
Rebalancing vertices.
Rebalancing volume element connectivity.
Rebalancing markers and surface elements.
14875 vertices including ghost points. 
23674 interior elements including halo cells. 
18780 triangles.
4894 quadrilaterals.
Establishing MPI communication patterns.
Setting point connectivity.
Renumbering points (Reverse Cuthill McKee Ordering).
Recomputing point connectivity.
Setting element connectivity.
Checking the numerical grid orientation.
All volume elements are correctly orientend.
All surface elements are correctly orientend.
Identifying edges and vertices.
Setting the control volume structure.
Area of the computational grid: 32209.9.
Searching for the closest normal neighbors to the surfaces.
Storing a mapping from global to local point index.
Compute the surface curvature.
Max K: 171.66. Mean K: 7.7612. Standard deviation K: 23.61.
Checking for periodicity.
Computing mesh quality statistics for the dual control volumes.
+--------------------------------------------------------------+
|           Mesh Quality Metric|        Minimum|        Maximum|
+--------------------------------------------------------------+
|    Orthogonality Angle (deg.)|        75.1663|        89.9991|
|     CV Face Area Aspect Ratio|        1.00368|        3358.52|
|           CV Sub-Volume Ratio|        1.00048|        1214.84|
+--------------------------------------------------------------+
Finding max control volume width.
Communicating number of neighbors.
Wetted area = 2.02201 m.
Area projection in the x-plane = 0.124793 m, y-plane = 0.995873 m.
Max. coordinate in the x-direction = 1 m, y-direction = 0.0622281 m.
Min. coordinate in the x-direction = 0 m, y-direction = -0.0598788 m.
Computing wall distances.

-------------------- Solver Preprocessing ( Zone 0 ) --------------------
WARNING: AoA in the solution file (2.79035 deg.) +
         AoA offset in mesh file (0 deg.) = 2.79035 deg.
WARNING: SU2 will use the dCD/dCL provided in the direct solution file: 0.0173076.
WARNING: SU2 will use the dCMz/dCL provided in the direct solution file: -0.000905189.
Viscous flow: Computing pressure using the ideal gas law
based on the free-stream temperature and a density computed
from the Reynolds number.
Force coefficients computed using free-stream values.

-- Models:
+------------------------------------------------------------------------------+
|          Viscosity Model|        Conductivity Model|              Fluid Model|
+------------------------------------------------------------------------------+
|               SUTHERLAND|          CONSTANT_PRANDTL|             STANDARD_AIR|
+------------------------------------------------------------------------------+
-- Fluid properties:
+------------------------------------------------------------------------------+
|                  Name|    Dim. value|    Ref. value|      Unit|Non-dim. value|
+------------------------------------------------------------------------------+
|        Ref. Viscosity|     1.716e-05|             1|   N.s/m^2|     1.716e-05|
|      Sutherland Temp.|        273.15|             1|         K|        273.15|
|     Sutherland Const.|         110.4|             1|         K|         110.4|
+------------------------------------------------------------------------------+
|        Prandtl (Lam.)|             -|             -|         -|          0.71|
|       Prandtl (Turb.)|             -|             -|         -|           0.9|
+------------------------------------------------------------------------------+
|          Gas Constant|       287.058|             1|  N.m/kg.K|       287.058|
|      Spec. Heat Ratio|             -|             -|         -|           1.4|
+------------------------------------------------------------------------------+
-- Initial and free-stream conditions:
+------------------------------------------------------------------------------+
|                  Name|    Dim. value|    Ref. value|      Unit|Non-dim. value|
+------------------------------------------------------------------------------+
|       Static Pressure|         38515|             1|        Pa|         38515|
|               Density|      0.465631|             1|    kg/m^3|      0.465631|
|           Temperature|        288.15|             1|         K|        288.15|
|          Total Energy|        237984|             1|   m^2/s^2|        237984|
|            Velocity-X|       249.482|             1|       m/s|       249.482|
|            Velocity-Y|       12.1596|             1|       m/s|       12.1596|
|    Velocity Magnitude|       249.778|             1|       m/s|       249.778|
+------------------------------------------------------------------------------+
|             Viscosity|    1.7893e-05|             1|   N.s/m^2|    1.7893e-05|
|          Conductivity|             -|             1|   W/m^2.K|             -|
|     Turb. Kin. Energy|       233.959|             1|   m^2/s^2|       233.959|
|     Spec. Dissipation|        608834|             1|       1/s|        608834|
+------------------------------------------------------------------------------+
|           Mach Number|             -|             -|         -|         0.734|
|       Reynolds Number|             -|             -|         -|       6.5e+06|
+------------------------------------------------------------------------------+
Initialize Jacobian structure (Navier-Stokes). MG level: 0.
Initialize Jacobian structure (SA model).

------------------- Numerics Preprocessing ( Zone 0 ) -------------------

----------------- Integration Preprocessing ( Zone 0 ) ------------------

------------------- Iteration Preprocessing ( Zone 0 ) ------------------
Euler/Navier-Stokes/RANS fluid iteration.

------------------------------ Begin Solver -----------------------------

Simulation Run using the Single-zone Driver
WARNING: SU2 was not compiled for an AVX-capable architecture. Performance could be better,
         see https://su2code.github.io/docs_v7/Build-SU2-Linux-MacOS/#compiler-optimizations
+----------------------------------------------------------------+
|  Inner_Iter|    rms[Rho]|     rms[nu]|          CL|          CD|
+----------------------------------------------------------------+
|           0|   -5.359718|   -6.595938|    0.823983|    0.012049|
|           1|   -5.418675|   -6.700692|    0.823976|    0.012051|
|           2|   -5.483942|   -6.818355|    0.823977|    0.012051|
|           3|   -5.539429|   -6.943298|    0.823982|    0.012051|
|           4|   -5.583230|   -7.069148|    0.823989|    0.012051|
|           5|   -5.613524|   -7.181922|    0.823994|    0.012051|
|           6|   -5.629776|   -7.255090|    0.823997|    0.012051|
|           7|   -5.635146|   -7.270426|    0.823998|    0.012051|
|           8|   -5.633902|   -7.247528|    0.823997|    0.012051|
|           9|   -5.628485|   -7.217862|    0.823995|    0.012051|
|          10|   -5.619585|   -7.197957|    0.823992|    0.012050|
|          11|   -5.607700|   -7.192098|    0.823988|    0.012049|
|          12|   -5.593998|   -7.198922|    0.823984|    0.012047|
|          13|   -5.580098|   -7.213853|    0.823980|    0.012045|
|          14|   -5.567493|   -7.229106|    0.823977|    0.012043|
|          15|   -5.557194|   -7.234374|    0.823974|    0.012041|
|          16|   -5.549643|   -7.221631|    0.823973|    0.012038|
|          17|   -5.544756|   -7.191669|    0.823973|    0.012036|
|          18|   -5.542012|   -7.153411|    0.823974|    0.012034|
|          19|   -5.540616|   -7.116797|    0.823976|    0.012032|
|          20|   -5.539728|   -7.088477|    0.823979|    0.012030|
|          21|   -5.538719|   -7.071582|    0.823983|    0.012029|
|          22|   -5.537349|   -7.066956|    0.823987|    0.012027|
|          23|   -5.535767|   -7.074043|    0.823991|    0.012026|
|          24|   -5.534353|   -7.091257|    0.823996|    0.012025|
|          25|   -5.533500|   -7.115990|    0.824000|    0.012025|
|          26|   -5.533442|   -7.144513|    0.824004|    0.012024|
|          27|   -5.534187|   -7.172167|    0.824007|    0.012023|
|          28|   -5.535542|   -7.194320|    0.824009|    0.012023|
|          29|   -5.537207|   -7.208053|    0.824012|    0.012023|
|          30|   -5.538868|   -7.213453|    0.824013|    0.012022|
|          31|   -5.540277|   -7.213226|    0.824014|    0.012022|
|          32|   -5.541289|   -7.211023|    0.824015|    0.012021|
|          33|   -5.541858|   -7.209954|    0.824016|    0.012021|
|          34|   -5.542010|   -7.211991|    0.824016|    0.012021|
|          35|   -5.541808|   -7.218007|    0.824017|    0.012020|
|          36|   -5.541324|   -7.228020|    0.824018|    0.012020|
|          37|   -5.540624|   -7.241430|    0.824020|    0.012019|
|          38|   -5.539764|   -7.257205|    0.824021|    0.012019|
|          39|   -5.538793|   -7.274037|    0.824023|    0.012019|
|          40|   -5.537754|   -7.290523|    0.824026|    0.012018|
|          41|   -5.536688|   -7.305364|    0.824029|    0.012018|
|          42|   -5.535634|   -7.317574|    0.824032|    0.012017|
|          43|   -5.534619|   -7.326627|    0.824036|    0.012017|
|          44|   -5.533662|   -7.332483|    0.824040|    0.012017|
|          45|   -5.532763|   -7.335488|    0.824044|    0.012016|
|          46|   -5.531904|   -7.336207|    0.824048|    0.012016|
|          47|   -5.531048|   -7.335260|    0.824053|    0.012016|
|          48|   -5.530145|   -7.333215|    0.824058|    0.012016|
|          49|   -5.529137|   -7.330538|    0.824062|    0.012016|
|          50|   -5.527971|   -7.327601|    0.824067|    0.012016|
|          51|   -5.526602|   -7.324697|    0.824072|    0.012016|
|          52|   -5.525010|   -7.322065|    0.824076|    0.012016|
|          53|   -5.523199|   -7.319907|    0.824080|    0.012016|
|          54|   -5.521201|   -7.318394|    0.824084|    0.012016|
|          55|   -5.519069|   -7.317667|    0.824088|    0.012017|
|          56|   -5.516872|   -7.317828|    0.824092|    0.012017|
|          57|   -5.514685|   -7.318937|    0.824095|    0.012017|
|          58|   -5.512577|   -7.321012|    0.824098|    0.012018|
|          59|   -5.510603|   -7.324023|    0.824101|    0.012019|
|          60|   -5.508800|   -7.327902|    0.824104|    0.012019|
|          61|   -5.507185|   -7.332545|    0.824106|    0.012020|
|          62|   -5.505758|   -7.337826|    0.824108|    0.012021|
|          63|   -5.504506|   -7.343605|    0.824110|    0.012021|
|          64|   -5.503410|   -7.349739|    0.824112|    0.012022|
|          65|   -5.502450|   -7.356095|    0.824114|    0.012023|
|          66|   -5.501612|   -7.362554|    0.824115|    0.012024|
|          67|   -5.500891|   -7.369023|    0.824117|    0.012025|
|          68|   -5.500287|   -7.375428|    0.824118|    0.012025|
|          69|   -5.499810|   -7.381722|    0.824119|    0.012026|
|          70|   -5.499471|   -7.387878|    0.824120|    0.012027|
|          71|   -5.499283|   -7.393885|    0.824121|    0.012028|
|          72|   -5.499255|   -7.399745|    0.824122|    0.012029|
|          73|   -5.499390|   -7.405470|    0.824122|    0.012030|
|          74|   -5.499689|   -7.411077|    0.824123|    0.012031|
|          75|   -5.500146|   -7.416586|    0.824123|    0.012031|
|          76|   -5.500756|   -7.422020|    0.824124|    0.012032|
|          77|   -5.501514|   -7.427400|    0.824124|    0.012033|
|          78|   -5.502416|   -7.432749|    0.824124|    0.012034|
|          79|   -5.503464|   -7.438083|    0.824125|    0.012034|
|          80|   -5.504664|   -7.443414|    0.824125|    0.012035|
|          81|   -5.506021|   -7.448746|    0.824125|    0.012036|
|          82|   -5.507542|   -7.454077|    0.824125|    0.012036|
|          83|   -5.509228|   -7.459396|    0.824125|    0.012037|
|          84|   -5.511076|   -7.464686|    0.824126|    0.012038|
|          85|   -5.513070|   -7.469921|    0.824126|    0.012038|
|          86|   -5.515187|   -7.475069|    0.824126|    0.012039|
|          87|   -5.517393|   -7.480096|    0.824126|    0.012039|
|          88|   -5.519646|   -7.484965|    0.824127|    0.012040|
|          89|   -5.521898|   -7.489641|    0.824127|    0.012041|
|          90|   -5.524102|   -7.494093|    0.824127|    0.012041|
|          91|   -5.526212|   -7.498298|    0.824127|    0.012042|
|          92|   -5.528193|   -7.502240|    0.824128|    0.012042|
|          93|   -5.530017|   -7.505914|    0.824128|    0.012043|
|          94|   -5.531675|   -7.509327|    0.824128|    0.012043|
|          95|   -5.533169|   -7.512496|    0.824128|    0.012044|
|          96|   -5.534519|   -7.515446|    0.824129|    0.012044|
|          97|   -5.535757|   -7.518214|    0.824129|    0.012045|
|          98|   -5.536925|   -7.520839|    0.824129|    0.012045|
|          99|   -5.538076|   -7.523364|    0.824129|    0.012045|
|         100|   -5.539263|   -7.525837|    0.824128|    0.012046|
|         101|   -5.540541|   -7.528303|    0.824128|    0.012037|
+-----------------------------------------------------------------------+
|Fixed CL Mode                           |Value                         |
+-----------------------------------------------------------------------+
|Current CL                              |0.824128                      |
|Target CL                               |0.824                         |
|Previous AOA                            |2.79035                       |
|Changed AoA by                          |-0.000641892                  |
+-----------------------------------------------------------------------+
+----------------------------------------------------------------+
|  Inner_Iter|    rms[Rho]|     rms[nu]|          CL|          CD|
+----------------------------------------------------------------+
|         102|   -3.385925|   -7.358106|    0.824128|    0.012037|
|         103|   -3.770778|   -7.431380|    0.824127|    0.012037|
|         104|   -4.016380|   -7.458935|    0.824127|    0.012037|
|         105|   -4.096441|   -7.475883|    0.824126|    0.012038|
|         106|   -4.150778|   -7.489123|    0.824125|    0.012038|
|         107|   -4.221093|   -7.500386|    0.824125|    0.012038|
|         108|   -4.308030|   -7.510207|    0.824124|    0.012038|
|         109|   -4.398642|   -7.518889|    0.824123|    0.012038|
|         110|   -4.475948|   -7.526608|    0.824122|    0.012038|
|         111|   -4.531368|   -7.533378|    0.824121|    0.012037|
|         112|   -4.566902|   -7.539248|    0.824120|    0.012037|
|         113|   -4.586932|   -7.544482|    0.824118|    0.012037|
|         114|   -4.595658|   -7.549485|    0.824117|    0.012037|
|         115|   -4.599004|   -7.554562|    0.824116|    0.012037|
|         116|   -4.603461|   -7.559823|    0.824115|    0.012036|
|         117|   -4.613322|   -7.565211|    0.824114|    0.012036|
|         118|   -4.629535|   -7.570688|    0.824113|    0.012035|
|         119|   -4.650260|   -7.576265|    0.824113|    0.012035|
|         120|   -4.672320|   -7.582014|    0.824112|    0.012035|
|         121|   -4.693018|   -7.587993|    0.824111|    0.012034|
|         122|   -4.711452|   -7.594197|    0.824110|    0.012034|
|         123|   -4.728459|   -7.600548|    0.824110|    0.012033|
|         124|   -4.745474|   -7.606943|    0.824109|    0.012033|
|         125|   -4.763404|   -7.613266|    0.824109|    0.012032|
|         126|   -4.782240|   -7.619421|    0.824108|    0.012032|
|         127|   -4.801262|   -7.625361|    0.824108|    0.012032|
|         128|   -4.819464|   -7.631064|    0.824107|    0.012031|
|         129|   -4.835891|   -7.636533|    0.824107|    0.012031|
|         130|   -4.849847|   -7.641772|    0.824107|    0.012030|
|         131|   -4.861026|   -7.646813|    0.824106|    0.012030|
|         132|   -4.869628|   -7.651690|    0.824106|    0.012029|
|         133|   -4.876362|   -7.656436|    0.824105|    0.012028|
|         134|   -4.882288|   -7.661091|    0.824105|    0.012028|
|         135|   -4.888547|   -7.665674|    0.824105|    0.012027|
|         136|   -4.896093|   -7.670195|    0.824104|    0.012027|
|         137|   -4.905523|   -7.674658|    0.824104|    0.012026|
|         138|   -4.917012|   -7.679036|    0.824103|    0.012026|
|         139|   -4.930302|   -7.683304|    0.824102|    0.012025|
|         140|   -4.944745|   -7.687431|    0.824101|    0.012024|
|         141|   -4.959391|   -7.691374|    0.824101|    0.012024|
|         142|   -4.973160|   -7.695081|    0.824100|    0.012023|
|         143|   -4.985112|   -7.698507|    0.824098|    0.012023|
|         144|   -4.994725|   -7.701608|    0.824097|    0.012022|
|         145|   -5.002066|   -7.704346|    0.824096|    0.012021|
|         146|   -5.007755|   -7.706674|    0.824094|    0.012021|
|         147|   -5.012731|   -7.708543|    0.824093|    0.012020|
|         148|   -5.017964|   -7.709903|    0.824091|    0.012019|
|         149|   -5.024216|   -7.710704|    0.824089|    0.012019|
|         150|   -5.031921|   -7.710901|    0.824087|    0.012018|
|         151|   -5.041159|   -7.710467|    0.824085|    0.012017|
|         152|   -5.051706|   -7.709387|    0.824082|    0.012017|
|         153|   -5.063124|   -7.707700|    0.824080|    0.012016|
|         154|   -5.074877|   -7.705451|    0.824077|    0.012015|
|         155|   -5.086445|   -7.702671|    0.824074|    0.012014|
|         156|   -5.097435|   -7.699446|    0.824071|    0.012014|
|         157|   -5.107642|   -7.695886|    0.824068|    0.012013|
|         158|   -5.117060|   -7.692128|    0.824064|    0.012013|
|         159|   -5.125847|   -7.688306|    0.824061|    0.012012|
|         160|   -5.134248|   -7.684574|    0.824057|    0.012011|
|         161|   -5.142524|   -7.681084|    0.824053|    0.012011|
|         162|   -5.150895|   -7.677972|    0.824049|    0.012010|
|         163|   -5.159507|   -7.675366|    0.824045|    0.012009|
|         164|   -5.168428|   -7.673386|    0.824040|    0.012009|
|         165|   -5.177662|   -7.672132|    0.824036|    0.012008|
|         166|   -5.187170|   -7.671684|    0.824031|    0.012008|
|         167|   -5.196894|   -7.672105|    0.824027|    0.012007|
|         168|   -5.206776|   -7.673433|    0.824022|    0.012007|
|         169|   -5.216767|   -7.675691|    0.824018|    0.012006|
|         170|   -5.226831|   -7.678871|    0.824014|    0.012006|
|         171|   -5.236940|   -7.682940|    0.824009|    0.012006|
|         172|   -5.247066|   -7.687834|    0.824005|    0.012005|
|         173|   -5.257176|   -7.693452|    0.824001|    0.012005|
|         174|   -5.267226|   -7.699657|    0.823997|    0.012005|
|         175|   -5.277157|   -7.706271|    0.823994|    0.012004|
|         176|   -5.286898|   -7.713078|    0.823990|    0.012004|
|         177|   -5.296368|   -7.719830|    0.823987|    0.012004|
|         178|   -5.305479|   -7.726251|    0.823984|    0.012004|
|         179|   -5.314146|   -7.732051|    0.823981|    0.012004|
|         180|   -5.322287|   -7.736950|    0.823979|    0.012004|
|         181|   -5.329830|   -7.740698|    0.823977|    0.012004|
|         182|   -5.336716|   -7.743100|    0.823976|    0.012004|
|         183|   -5.342904|   -7.744038|    0.823974|    0.012004|
|         184|   -5.348371|   -7.743487|    0.823973|    0.012004|
|         185|   -5.353116|   -7.741524|    0.823973|    0.012004|
|         186|   -5.357157|   -7.738307|    0.823972|    0.012004|
|         187|   -5.360537|   -7.734058|    0.823972|    0.012004|
|         188|   -5.363314|   -7.729053|    0.823973|    0.012005|
|         189|   -5.365565|   -7.723590|    0.823973|    0.012005|
|         190|   -5.367378|   -7.717974|    0.823974|    0.012005|
|         191|   -5.368850|   -7.712492|    0.823976|    0.012005|
|         192|   -5.370082|   -7.707407|    0.823977|    0.012006|
|         193|   -5.371173|   -7.702947|    0.823979|    0.012006|
|         194|   -5.372218|   -7.699307|    0.823981|    0.012006|
|         195|   -5.373305|   -7.696642|    0.823983|    0.012007|
|         196|   -5.374513|   -7.695076|    0.823985|    0.012007|
|         197|   -5.375907|   -7.694701|    0.823988|    0.012008|
|         198|   -5.377544|   -7.695580|    0.823990|    0.012008|
|         199|   -5.379465|   -7.697749|    0.823993|    0.012009|
|         200|   -5.381701|   -7.701220|    0.823996|    0.012009|
|         201|   -5.384269|   -7.705981|    0.823999|    0.012010|
+-----------------------------------------------------------------------+
|Fixed CL Mode                           |Value                         |
+-----------------------------------------------------------------------+
|Current CL                              |0.823999                      |
|Target CL                               |0.824                         |
|Previous AOA                            |2.78971                       |
|Changed AoA by                          |2.15741e-05                   |
+-----------------------------------------------------------------------+
+----------------------------------------------------------------+
|  Inner_Iter|    rms[Rho]|     rms[nu]|          CL|          CD|
+----------------------------------------------------------------+
|         202|   -4.842065|   -7.711433|    0.824001|    0.012010|
|         203|   -5.168105|   -7.718974|    0.824004|    0.012011|
|         204|   -5.315620|   -7.727352|    0.824007|    0.012011|
|         205|   -5.347364|   -7.736652|    0.824010|    0.012012|
|         206|   -5.361693|   -7.746753|    0.824013|    0.012012|
|         207|   -5.376611|   -7.757474|    0.824016|    0.012013|
|         208|   -5.391063|   -7.768586|    0.824019|    0.012013|
|         209|   -5.402080|   -7.779817|    0.824021|    0.012014|
|         210|   -5.409017|   -7.790860|    0.824024|    0.012014|
|         211|   -5.413198|   -7.801375|    0.824026|    0.012015|
|         212|   -5.416096|   -7.811010|    0.824029|    0.012016|
|         213|   -5.418563|   -7.819422|    0.824031|    0.012016|
|         214|   -5.421019|   -7.826306|    0.824033|    0.012016|
|         215|   -5.423737|   -7.831422|    0.824035|    0.012017|
|         216|   -5.426882|   -7.834618|    0.824037|    0.012017|
|         217|   -5.430435|   -7.835851|    0.824038|    0.012018|
|         218|   -5.434170|   -7.835185|    0.824040|    0.012018|
|         219|   -5.437737|   -7.832787|    0.824041|    0.012019|
|         220|   -5.440816|   -7.828901|    0.824042|    0.012019|
|         221|   -5.443237|   -7.823825|    0.824043|    0.012019|
|         222|   -5.445013|   -7.817877|    0.824043|    0.012020|
|         223|   -5.446294|   -7.811378|    0.824044|    0.012020|
|         224|   -5.447277|   -7.804626|    0.824044|    0.012020|
|         225|   -5.448148|   -7.797890|    0.824044|    0.012021|
|         226|   -5.449046|   -7.791399|    0.824043|    0.012021|
|         227|   -5.450060|   -7.785345|    0.824043|    0.012021|
|         228|   -5.451240|   -7.779881|    0.824042|    0.012021|
|         229|   -5.452603|   -7.775124|    0.824042|    0.012022|
|         230|   -5.454141|   -7.771160|    0.824041|    0.012022|
|         231|   -5.455840|   -7.768049|    0.824039|    0.012022|
|         232|   -5.457687|   -7.765824|    0.824038|    0.012022|
|         233|   -5.459681|   -7.764499|    0.824036|    0.012022|
|         234|   -5.461839|   -7.764070|    0.824035|    0.012022|
|         235|   -5.464189|   -7.764514|    0.824033|    0.012022|
|         236|   -5.466767|   -7.765795|    0.824031|    0.012022|
|         237|   -5.469607|   -7.767860|    0.824029|    0.012022|
|         238|   -5.472732|   -7.770643|    0.824027|    0.012022|
|         239|   -5.476150|   -7.774067|    0.824025|    0.012022|
|         240|   -5.479852|   -7.778043|    0.824022|    0.012022|
|         241|   -5.483816|   -7.782473|    0.824020|    0.012022|
|         242|   -5.488004|   -7.787248|    0.824018|    0.012022|
|         243|   -5.492376|   -7.792254|    0.824015|    0.012021|
|         244|   -5.496889|   -7.797377|    0.824013|    0.012021|
|         245|   -5.501507|   -7.802501|    0.824010|    0.012021|
|         246|   -5.506198|   -7.807518|    0.824008|    0.012021|
|         247|   -5.510938|   -7.812328|    0.824006|    0.012021|
|         248|   -5.515711|   -7.816847|    0.824003|    0.012021|
|         249|   -5.520500|   -7.821007|    0.824001|    0.012020|
|         250|   -5.525292|   -7.824763|    0.823999|    0.012020|
|         251|   -5.530074|   -7.828088|    0.823997|    0.012020|
|         252|   -5.534832|   -7.830981|    0.823995|    0.012020|
|         253|   -5.539550|   -7.833458|    0.823993|    0.012020|
|         254|   -5.544216|   -7.835553|    0.823991|    0.012019|
|         255|   -5.548818|   -7.837315|    0.823990|    0.012019|
|         256|   -5.553344|   -7.838799|    0.823988|    0.012019|
|         257|   -5.557786|   -7.840062|    0.823987|    0.012019|
|         258|   -5.562134|   -7.841160|    0.823986|    0.012018|
|         259|   -5.566381|   -7.842146|    0.823984|    0.012018|
|         260|   -5.570516|   -7.843061|    0.823983|    0.012018|
|         261|   -5.574526|   -7.843939|    0.823982|    0.012018|
|         262|   -5.578397|   -7.844800|    0.823982|    0.012018|
|         263|   -5.582107|   -7.845655|    0.823981|    0.012018|
|         264|   -5.585634|   -7.846499|    0.823980|    0.012017|
|         265|   -5.588949|   -7.847320|    0.823980|    0.012017|
|         266|   -5.592024|   -7.848095|    0.823979|    0.012017|
|         267|   -5.594825|   -7.848798|    0.823979|    0.012017|
|         268|   -5.597320|   -7.849396|    0.823978|    0.012017|
|         269|   -5.599476|   -7.849860|    0.823978|    0.012017|
|         270|   -5.601261|   -7.850161|    0.823978|    0.012017|
|         271|   -5.602647|   -7.850280|    0.823978|    0.012016|
|         272|   -5.603612|   -7.850203|    0.823978|    0.012016|
|         273|   -5.604136|   -7.849930|    0.823978|    0.012016|
|         274|   -5.604210|   -7.849471|    0.823977|    0.012016|
|         275|   -5.603828|   -7.848848|    0.823977|    0.012016|
|         276|   -5.602997|   -7.848094|    0.823977|    0.012016|
|         277|   -5.601728|   -7.847240|    0.823977|    0.012016|
|         278|   -5.600042|   -7.846338|    0.823977|    0.012016|
|         279|   -5.597966|   -7.845446|    0.823977|    0.012016|
|         280|   -5.595536|   -7.844625|    0.823977|    0.012016|
|         281|   -5.592790|   -7.843933|    0.823977|    0.012016|
|         282|   -5.589771|   -7.843427|    0.823977|    0.012015|
|         283|   -5.586526|   -7.843157|    0.823976|    0.012015|
|         284|   -5.583103|   -7.843163|    0.823976|    0.012015|
|         285|   -5.579549|   -7.843478|    0.823976|    0.012015|
|         286|   -5.575912|   -7.844124|    0.823976|    0.012015|
|         287|   -5.572237|   -7.845108|    0.823976|    0.012015|
|         288|   -5.568568|   -7.846430|    0.823975|    0.012015|
|         289|   -5.564945|   -7.848074|    0.823975|    0.012015|
|         290|   -5.561407|   -7.850016|    0.823975|    0.012015|
|         291|   -5.557986|   -7.852220|    0.823975|    0.012015|
|         292|   -5.554713|   -7.854641|    0.823974|    0.012015|
|         293|   -5.551616|   -7.857226|    0.823974|    0.012015|
|         294|   -5.548717|   -7.859919|    0.823974|    0.012015|
|         295|   -5.546037|   -7.862658|    0.823974|    0.012015|
|         296|   -5.543594|   -7.865383|    0.823973|    0.012015|
|         297|   -5.541400|   -7.868033|    0.823973|    0.012015|
|         298|   -5.539468|   -7.870554|    0.823973|    0.012015|
|         299|   -5.537806|   -7.872896|    0.823973|    0.012015|
|         300|   -5.536421|   -7.875019|    0.823973|    0.012015|
|         301|   -5.535317|   -7.876892|    0.823972|    0.012017|
+-----------------------------------------------------------------------+
|Fixed CL Mode                           |Value                         |
+-----------------------------------------------------------------------+
|Current CL                              |0.823972                      |
|Target CL                               |0.824                         |
|Previous AOA                            |2.78973                       |
|Changed AoA by                          |0.000137253                   |
+-----------------------------------------------------------------------+
+----------------------------------------------------------------+
|  Inner_Iter|    rms[Rho]|     rms[nu]|          CL|          CD|
+----------------------------------------------------------------+
|         302|   -4.055593|   -7.825624|    0.823972|    0.012017|
|         303|   -4.439690|   -7.852584|    0.823972|    0.012017|
|         304|   -4.684021|   -7.861670|    0.823972|    0.012017|
|         305|   -4.763270|   -7.866754|    0.823972|    0.012017|
|         306|   -4.816202|   -7.870163|    0.823972|    0.012017|
|         307|   -4.883695|   -7.872510|    0.823972|    0.012017|
|         308|   -4.965518|   -7.874049|    0.823972|    0.012017|
|         309|   -5.048090|   -7.874960|    0.823972|    0.012018|
|         310|   -5.115380|   -7.875390|    0.823972|    0.012018|
|         311|   -5.161222|   -7.875428|    0.823972|    0.012018|
|         312|   -5.189381|   -7.875157|    0.823972|    0.012018|
|         313|   -5.204870|   -7.874693|    0.823972|    0.012018|
|         314|   -5.211701|   -7.874161|    0.823972|    0.012018|
|         315|   -5.214669|   -7.873654|    0.823972|    0.012018|
|         316|   -5.218779|   -7.873210|    0.823972|    0.012019|
|         317|   -5.227269|   -7.872838|    0.823972|    0.012019|
|         318|   -5.240716|   -7.872538|    0.823972|    0.012019|
|         319|   -5.257504|   -7.872327|    0.823971|    0.012019|
|         320|   -5.275085|   -7.872228|    0.823971|    0.012019|
|         321|   -5.291444|   -7.872262|    0.823971|    0.012020|
|         322|   -5.306008|   -7.872441|    0.823971|    0.012020|
|         323|   -5.319460|   -7.872766|    0.823971|    0.012020|
|         324|   -5.332842|   -7.873239|    0.823971|    0.012020|
|         325|   -5.346766|   -7.873866|    0.823970|    0.012020|
|         326|   -5.361174|   -7.874654|    0.823970|    0.012021|
|         327|   -5.375537|   -7.875622|    0.823970|    0.012021|
|         328|   -5.389174|   -7.876790|    0.823969|    0.012021|
|         329|   -5.401482|   -7.878181|    0.823969|    0.012021|
|         330|   -5.412062|   -7.879814|    0.823969|    0.012021|
|         331|   -5.420772|   -7.881708|    0.823968|    0.012021|
|         332|   -5.427776|   -7.883874|    0.823968|    0.012022|
|         333|   -5.433528|   -7.886317|    0.823967|    0.012022|
|         334|   -5.438681|   -7.889031|    0.823967|    0.012022|
|         335|   -5.443921|   -7.892002|    0.823966|    0.012022|
|         336|   -5.449808|   -7.895210|    0.823966|    0.012022|
|         337|   -5.456668|   -7.898624|    0.823966|    0.012022|
|         338|   -5.464548|   -7.902209|    0.823965|    0.012022|
|         339|   -5.473228|   -7.905928|    0.823965|    0.012022|
|         340|   -5.482264|   -7.909742|    0.823964|    0.012023|
|         341|   -5.491078|   -7.913612|    0.823964|    0.012023|
|         342|   -5.499077|   -7.917499|    0.823964|    0.012023|
|         343|   -5.505800|   -7.921370|    0.823963|    0.012023|
|         344|   -5.511040|   -7.925194|    0.823963|    0.012023|
|         345|   -5.514891|   -7.928942|    0.823962|    0.012023|
|         346|   -5.517697|   -7.932594|    0.823962|    0.012023|
|         347|   -5.519938|   -7.936133|    0.823962|    0.012023|
|         348|   -5.522082|   -7.939547|    0.823962|    0.012023|
|         349|   -5.524481|   -7.942828|    0.823962|    0.012023|
|         350|   -5.527311|   -7.945973|    0.823961|    0.012023|
|         351|   -5.530572|   -7.948987|    0.823961|    0.012023|
|         352|   -5.534126|   -7.951876|    0.823961|    0.012023|
|         353|   -5.537759|   -7.954658|    0.823961|    0.012023|
|         354|   -5.541240|   -7.957351|    0.823961|    0.012023|
|         355|   -5.544387|   -7.959981|    0.823961|    0.012023|
|         356|   -5.547094|   -7.962581|    0.823962|    0.012023|
|         357|   -5.549347|   -7.965185|    0.823962|    0.012023|
|         358|   -5.551209|   -7.967832|    0.823962|    0.012023|
|         359|   -5.552796|   -7.970559|    0.823962|    0.012023|
|         360|   -5.554241|   -7.973405|    0.823963|    0.012023|
|         361|   -5.555671|   -7.976409|    0.823963|    0.012023|
|         362|   -5.557189|   -7.979604|    0.823964|    0.012023|
|         363|   -5.558869|   -7.983025|    0.823964|    0.012023|
|         364|   -5.560757|   -7.986699|    0.823965|    0.012023|
|         365|   -5.562878|   -7.990647|    0.823965|    0.012022|
|         366|   -5.565247|   -7.994888|    0.823966|    0.012022|
|         367|   -5.567874|   -7.999432|    0.823966|    0.012022|
|         368|   -5.570769|   -8.004282|    0.823967|    0.012022|
|         369|   -5.573946|   -8.009435|    0.823968|    0.012022|
|         370|   -5.577421|   -8.014882|    0.823968|    0.012022|
|         371|   -5.581211|   -8.020602|    0.823969|    0.012022|
|         372|   -5.585331|   -8.026572|    0.823970|    0.012022|
|         373|   -5.589794|   -8.032756|    0.823970|    0.012022|
|         374|   -5.594608|   -8.039115|    0.823971|    0.012022|
|         375|   -5.599775|   -8.045598|    0.823971|    0.012022|
|         376|   -5.605295|   -8.052150|    0.823972|    0.012022|
|         377|   -5.611161|   -8.058708|    0.823972|    0.012022|
|         378|   -5.617363|   -8.065207|    0.823973|    0.012022|
|         379|   -5.623889|   -8.071576|    0.823973|    0.012022|
|         380|   -5.630721|   -8.077744|    0.823974|    0.012022|
|         381|   -5.637840|   -8.083641|    0.823974|    0.012022|
|         382|   -5.645221|   -8.089200|    0.823974|    0.012022|
|         383|   -5.652837|   -8.094364|    0.823975|    0.012022|
|         384|   -5.660655|   -8.099086|    0.823975|    0.012022|
|         385|   -5.668638|   -8.103330|    0.823975|    0.012022|
|         386|   -5.676747|   -8.107077|    0.823975|    0.012022|
|         387|   -5.684933|   -8.110323|    0.823975|    0.012022|
|         388|   -5.693149|   -8.113082|    0.823975|    0.012022|
|         389|   -5.701340|   -8.115383|    0.823975|    0.012022|
|         390|   -5.709448|   -8.117269|    0.823975|    0.012022|
|         391|   -5.717415|   -8.118797|    0.823975|    0.012022|
|         392|   -5.725178|   -8.120032|    0.823975|    0.012022|
|         393|   -5.732675|   -8.121048|    0.823975|    0.012022|
|         394|   -5.739845|   -8.121920|    0.823975|    0.012022|
|         395|   -5.746628|   -8.122725|    0.823974|    0.012022|
|         396|   -5.752967|   -8.123536|    0.823974|    0.012022|
|         397|   -5.758813|   -8.124424|    0.823974|    0.012022|
|         398|   -5.764122|   -8.125451|    0.823974|    0.012022|
|         399|   -5.768858|   -8.126673|    0.823973|    0.012022|
|         400|   -5.772996|   -8.128137|    0.823973|    0.012022|
|         401|   -5.776522|   -8.129880|    0.823972|    0.012024|
+-----------------------------------------------------------------------+
|Fixed CL Mode                           |Value                         |
+-----------------------------------------------------------------------+
|Current CL                              |0.823972                      |
|Target CL                               |0.824                         |
|Previous AOA                            |2.78987                       |
|Changed AoA by                          |0.000135603                   |
+-----------------------------------------------------------------------+
+----------------------------------------------------------------+
|  Inner_Iter|    rms[Rho]|     rms[nu]|          CL|          CD|
+----------------------------------------------------------------+
|         402|   -4.061031|   -7.996453|    0.823972|    0.012024|
|         403|   -4.444836|   -8.057407|    0.823972|    0.012024|
|         404|   -4.687346|   -8.080333|    0.823971|    0.012024|
|         405|   -4.765627|   -8.094833|    0.823971|    0.012024|
|         406|   -4.819125|   -8.106396|    0.823971|    0.012024|
|         407|   -4.888370|   -8.116360|    0.823970|    0.012024|
|         408|   -4.973652|   -8.125163|    0.823970|    0.012024|
|         409|   -5.062225|   -8.133077|    0.823969|    0.012024|
|         410|   -5.137891|   -8.140305|    0.823969|    0.012024|
|         411|   -5.192732|   -8.146893|    0.823969|    0.012024|
|         412|   -5.228633|   -8.152891|    0.823968|    0.012024|
|         413|   -5.249489|   -8.158497|    0.823968|    0.012024|
|         414|   -5.259034|   -8.163990|    0.823968|    0.012024|
|         415|   -5.262803|   -8.169578|    0.823967|    0.012024|
|         416|   -5.267043|   -8.175315|    0.823967|    0.012024|
|         417|   -5.275961|   -8.181156|    0.823967|    0.012024|
|         418|   -5.290541|   -8.187055|    0.823966|    0.012024|
|         419|   -5.309095|   -8.193020|    0.823966|    0.012025|
|         420|   -5.328734|   -8.199092|    0.823966|    0.012025|
|         421|   -5.347092|   -8.205313|    0.823966|    0.012025|
|         422|   -5.363473|   -8.211663|    0.823965|    0.012025|
|         423|   -5.378692|   -8.218052|    0.823965|    0.012025|
|         424|   -5.393993|   -8.224355|    0.823965|    0.012025|
|         425|   -5.410073|   -8.230444|    0.823965|    0.012025|
|         426|   -5.426784|   -8.236196|    0.823965|    0.012025|
|         427|   -5.443373|   -8.241525|    0.823965|    0.012025|
|         428|   -5.458904|   -8.246367|    0.823965|    0.012025|
|         429|   -5.472574|   -8.250698|    0.823965|    0.012025|
|         430|   -5.483893|   -8.254519|    0.823965|    0.012025|
|         431|   -5.492761|   -8.257864|    0.823965|    0.012025|
|         432|   -5.499507|   -8.260769|    0.823965|    0.012025|
|         433|   -5.504844|   -8.263289|    0.823965|    0.012025|
|         434|   -5.509715|   -8.265466|    0.823965|    0.012025|
|         435|   -5.515068|   -8.267344|    0.823965|    0.012025|
|         436|   -5.521659|   -8.268953|    0.823965|    0.012025|
|         437|   -5.529922|   -8.270304|    0.823965|    0.012025|
|         438|   -5.539937|   -8.271410|    0.823965|    0.012024|
|         439|   -5.551433|   -8.272294|    0.823966|    0.012024|
|         440|   -5.563844|   -8.272972|    0.823966|    0.012024|
|         441|   -5.576393|   -8.273468|    0.823966|    0.012024|
|         442|   -5.588250|   -8.273813|    0.823966|    0.012024|
|         443|   -5.598726|   -8.274053|    0.823966|    0.012024|
|         444|   -5.607471|   -8.274213|    0.823967|    0.012024|
|         445|   -5.614576|   -8.274360|    0.823967|    0.012024|
|         446|   -5.620525|   -8.274535|    0.823967|    0.012024|
|         447|   -5.626033|   -8.274773|    0.823968|    0.012024|
|         448|   -5.631831|   -8.275105|    0.823968|    0.012024|
|         449|   -5.638495|   -8.275539|    0.823968|    0.012024|
|         450|   -5.646353|   -8.276079|    0.823969|    0.012024|
|         451|   -5.655459|   -8.276711|    0.823969|    0.012024|
|         452|   -5.665636|   -8.277418|    0.823970|    0.012024|
|         453|   -5.676544|   -8.278173|    0.823970|    0.012024|
|         454|   -5.687768|   -8.278934|    0.823971|    0.012024|
|         455|   -5.698916|   -8.279672|    0.823971|    0.012024|
|         456|   -5.709689|   -8.280363|    0.823972|    0.012024|
|         457|   -5.719928|   -8.280982|    0.823972|    0.012023|
|         458|   -5.729622|   -8.281508|    0.823973|    0.012023|
|         459|   -5.738872|   -8.281926|    0.823974|    0.012023|
|         460|   -5.747846|   -8.282236|    0.823974|    0.012023|
|         461|   -5.756718|   -8.282450|    0.823975|    0.012023|
|         462|   -5.765632|   -8.282593|    0.823976|    0.012023|
|         463|   -5.774675|   -8.282708|    0.823977|    0.012023|
|         464|   -5.783875|   -8.282851|    0.823977|    0.012023|
|         465|   -5.793212|   -8.283088|    0.823978|    0.012023|
|         466|   -5.802632|   -8.283497|    0.823979|    0.012023|
|         467|   -5.812070|   -8.284162|    0.823980|    0.012023|
|         468|   -5.821462|   -8.285170|    0.823981|    0.012023|
|         469|   -5.830754|   -8.286607|    0.823982|    0.012023|
|         470|   -5.839903|   -8.288557|    0.823983|    0.012023|
|         471|   -5.848876|   -8.291095|    0.823983|    0.012023|
|         472|   -5.857646|   -8.294284|    0.823984|    0.012023|
|         473|   -5.866183|   -8.298172|    0.823985|    0.012023|
|         474|   -5.874457|   -8.302786|    0.823986|    0.012023|
|         475|   -5.882431|   -8.308131|    0.823987|    0.012023|
|         476|   -5.890069|   -8.314185|    0.823987|    0.012022|
|         477|   -5.897334|   -8.320895|    0.823988|    0.012022|
|         478|   -5.904198|   -8.328173|    0.823989|    0.012022|
|         479|   -5.910638|   -8.335897|    0.823989|    0.012022|
|         480|   -5.916645|   -8.343902|    0.823990|    0.012022|
|         481|   -5.922224|   -8.351991|    0.823990|    0.012022|
|         482|   -5.927390|   -8.359931|    0.823991|    0.012022|
|         483|   -5.932171|   -8.367468|    0.823991|    0.012022|
|         484|   -5.936607|   -8.374339|    0.823992|    0.012022|
|         485|   -5.940742|   -8.380289|    0.823992|    0.012022|
|         486|   -5.944632|   -8.385094|    0.823992|    0.012022|
|         487|   -5.948333|   -8.388585|    0.823992|    0.012022|
|         488|   -5.951905|   -8.390666|    0.823992|    0.012022|
|         489|   -5.955408|   -8.391327|    0.823992|    0.012022|
|         490|   -5.958904|   -8.390648|    0.823992|    0.012023|
|         491|   -5.962448|   -8.388791|    0.823992|    0.012023|
|         492|   -5.966095|   -8.385981|    0.823992|    0.012023|
|         493|   -5.969892|   -8.382489|    0.823991|    0.012023|
|         494|   -5.973884|   -8.378607|    0.823991|    0.012023|
|         495|   -5.978107|   -8.374625|    0.823991|    0.012023|
|         496|   -5.982591|   -8.370819|    0.823990|    0.012023|
|         497|   -5.987357|   -8.367437|    0.823990|    0.012023|
|         498|   -5.992423|   -8.364692|    0.823989|    0.012023|
|         499|   -5.997797|   -8.362759|    0.823989|    0.012023|
|         500|   -6.003479|   -8.361774|    0.823988|    0.012023|
|         501|   -6.009466|   -8.361837|    0.823987|    0.012024|
+-----------------------------------------------------------------------+
|Fixed CL Mode                           |Value                         |
+-----------------------------------------------------------------------+
|Current CL                              |0.823987                      |
|Target CL                               |0.824                         |
|Previous AOA                            |2.79                          |
|Changed AoA by                          |5.99738e-05                   |
+-----------------------------------------------------------------------+
+----------------------------------------------------------------+
|  Inner_Iter|    rms[Rho]|     rms[nu]|          CL|          CD|
+----------------------------------------------------------------+
|         502|   -4.415258|   -8.275195|    0.823987|    0.012024|
|         503|   -4.797775|   -8.316953|    0.823986|    0.012024|
|         504|   -5.036439|   -8.332963|    0.823985|    0.012024|
|         505|   -5.112648|   -8.344430|    0.823985|    0.012025|
|         506|   -5.165432|   -8.354952|    0.823984|    0.012025|
|         507|   -5.233965|   -8.365299|    0.823983|    0.012025|
|         508|   -5.318341|   -8.375591|    0.823983|    0.012025|
|         509|   -5.406361|   -8.385794|    0.823982|    0.012025|
|         510|   -5.482817|   -8.395779|    0.823981|    0.012025|
|         511|   -5.540204|   -8.405296|    0.823981|    0.012025|
|         512|   -5.579769|   -8.414104|    0.823980|    0.012025|
|         513|   -5.604391|   -8.422048|    0.823979|    0.012025|
|         514|   -5.616980|   -8.429055|    0.823979|    0.012025|
|         515|   -5.622764|   -8.435042|    0.823978|    0.012026|
|         516|   -5.628208|   -8.439882|    0.823978|    0.012026|
|         517|   -5.637920|   -8.443450|    0.823977|    0.012026|
|         518|   -5.653217|   -8.445697|    0.823977|    0.012026|
|         519|   -5.672617|   -8.446695|    0.823976|    0.012026|
|         520|   -5.693327|   -8.446599|    0.823976|    0.012026|
|         521|   -5.713009|   -8.445607|    0.823976|    0.012026|
|         522|   -5.730953|   -8.443913|    0.823975|    0.012026|
|         523|   -5.747947|   -8.441688|    0.823975|    0.012026|
|         524|   -5.765190|   -8.439074|    0.823975|    0.012027|
|         525|   -5.783289|   -8.436220|    0.823975|    0.012027|
|         526|   -5.801941|   -8.433277|    0.823974|    0.012027|
|         527|   -5.820192|   -8.430383|    0.823974|    0.012027|
|         528|   -5.836907|   -8.427664|    0.823974|    0.012027|
|         529|   -5.851152|   -8.425228|    0.823974|    0.012027|
|         530|   -5.862410|   -8.423157|    0.823974|    0.012027|
|         531|   -5.870669|   -8.421514|    0.823974|    0.012027|
|         532|   -5.876417|   -8.420327|    0.823974|    0.012027|
|         533|   -5.880553|   -8.419598|    0.823974|    0.012027|
|         534|   -5.884168|   -8.419296|    0.823974|    0.012027|
|         535|   -5.888296|   -8.419369|    0.823974|    0.012027|
|         536|   -5.893699|   -8.419748|    0.823975|    0.012027|
|         537|   -5.900764|   -8.420347|    0.823975|    0.012027|
|         538|   -5.909474|   -8.421074|    0.823975|    0.012027|
|         539|   -5.919447|   -8.421835|    0.823975|    0.012027|
|         540|   -5.929999|   -8.422550|    0.823976|    0.012027|
|         541|   -5.940271|   -8.423152|    0.823976|    0.012027|
|         542|   -5.949401|   -8.423592|    0.823976|    0.012027|
|         543|   -5.956746|   -8.423845|    0.823977|    0.012027|
|         544|   -5.962069|   -8.423910|    0.823977|    0.012027|
|         545|   -5.965603|   -8.423806|    0.823977|    0.012027|
|         546|   -5.967957|   -8.423572|    0.823978|    0.012027|
|         547|   -5.969919|   -8.423260|    0.823978|    0.012027|
|         548|   -5.972235|   -8.422928|    0.823978|    0.012027|
|         549|   -5.975452|   -8.422635|    0.823979|    0.012027|
|         550|   -5.979852|   -8.422436|    0.823979|    0.012027|
|         551|   -5.985453|   -8.422384|    0.823979|    0.012027|
|         552|   -5.992066|   -8.422514|    0.823980|    0.012027|
|         553|   -5.999372|   -8.422850|    0.823980|    0.012027|
|         554|   -6.007013|   -8.423399|    0.823981|    0.012027|
|         555|   -6.014674|   -8.424143|    0.823981|    0.012026|
|         556|   -6.022139|   -8.425057|    0.823981|    0.012026|
|         557|   -6.029323|   -8.426101|    0.823982|    0.012026|
|         558|   -6.036262|   -8.427217|    0.823982|    0.012026|
|         559|   -6.043078|   -8.428337|    0.823983|    0.012026|
|         560|   -6.049936|   -8.429385|    0.823983|    0.012026|
|         561|   -6.056998|   -8.430281|    0.823984|    0.012026|
|         562|   -6.064392|   -8.430955|    0.823984|    0.012026|
|         563|   -6.072198|   -8.431346|    0.823985|    0.012025|
|         564|   -6.080450|   -8.431410|    0.823985|    0.012025|
|         565|   -6.089141|   -8.431124|    0.823986|    0.012025|
|         566|   -6.098239|   -8.430492|    0.823986|    0.012025|
|         567|   -6.107701|   -8.429539|    0.823987|    0.012025|
|         568|   -6.117483|   -8.428320|    0.823987|    0.012025|
|         569|   -6.127544|   -8.426906|    0.823988|    0.012025|
|         570|   -6.137848|   -8.425389|    0.823989|    0.012024|
|         571|   -6.148358|   -8.423870|    0.823989|    0.012024|
|         572|   -6.159032|   -8.422457|    0.823990|    0.012024|
|         573|   -6.169820|   -8.421256|    0.823990|    0.012024|
|         574|   -6.180657|   -8.420367|    0.823991|    0.012024|
|         575|   -6.191463|   -8.419878|    0.823991|    0.012024|
|         576|   -6.202143|   -8.419866|    0.823992|    0.012024|
|         577|   -6.212590|   -8.420385|    0.823993|    0.012023|
|         578|   -6.222689|   -8.421470|    0.823993|    0.012023|
|         579|   -6.232321|   -8.423136|    0.823994|    0.012023|
|         580|   -6.241374|   -8.425376|    0.823994|    0.012023|
|         581|   -6.249741|   -8.428156|    0.823995|    0.012023|
|         582|   -6.257330|   -8.431424|    0.823995|    0.012023|
|         583|   -6.264072|   -8.435101|    0.823995|    0.012023|
|         584|   -6.269917|   -8.439092|    0.823996|    0.012023|
|         585|   -6.274845|   -8.443282|    0.823996|    0.012022|
|         586|   -6.278862|   -8.447547|    0.823997|    0.012022|
|         587|   -6.282002|   -8.451753|    0.823997|    0.012022|
|         588|   -6.284325|   -8.455766|    0.823997|    0.012022|
|         589|   -6.285909|   -8.459461|    0.823997|    0.012022|
|         590|   -6.286851|   -8.462728|    0.823998|    0.012022|
|         591|   -6.287261|   -8.465480|    0.823998|    0.012022|
|         592|   -6.287251|   -8.467661|    0.823998|    0.012022|
|         593|   -6.286936|   -8.469247|    0.823998|    0.012022|
|         594|   -6.286429|   -8.470248|    0.823998|    0.012022|
|         595|   -6.285835|   -8.470710|    0.823998|    0.012022|
|         596|   -6.285252|   -8.470701|    0.823998|    0.012022|
|         597|   -6.284767|   -8.470316|    0.823998|    0.012022|
|         598|   -6.284456|   -8.469658|    0.823998|    0.012022|
|         599|   -6.284387|   -8.468835|    0.823998|    0.012022|
|         600|   -6.284614|   -8.467952|    0.823998|    0.012022|
|         601|   -6.285184|   -8.467101|    0.823998|    0.012022|
+-----------------------------------------------------------------------+
|Fixed CL Mode                           |Value                         |
+-----------------------------------------------------------------------+
|Current CL                              |0.823998                      |
|Target CL                               |0.824                         |
|Previous AOA                            |2.79006                       |
|Changed AoA by                          |8.59831e-06                   |
+-----------------------------------------------------------------------+
+----------------------------------------------------------------+
|  Inner_Iter|    rms[Rho]|     rms[nu]|          CL|          CD|
+----------------------------------------------------------------+
|         602|   -5.257188|   -8.462506|    0.823998|    0.012022|
|         603|   -5.627442|   -8.463713|    0.823998|    0.012022|
|         604|   -5.833944|   -8.463868|    0.823998|    0.012022|
|         605|   -5.891559|   -8.464013|    0.823998|    0.012022|
|         606|   -5.932811|   -8.464274|    0.823998|    0.012022|
|         607|   -5.986131|   -8.464639|    0.823997|    0.012022|
|         608|   -6.048315|   -8.465051|    0.823997|    0.012022|
|         609|   -6.108963|   -8.465437|    0.823997|    0.012022|
|         610|   -6.159452|   -8.465711|    0.823997|    0.012022|
|         611|   -6.197978|   -8.465780|    0.823997|    0.012022|
|         612|   -6.226722|   -8.465551|    0.823996|    0.012022|
|         613|   -6.247491|   -8.464941|    0.823996|    0.012022|
|         614|   -6.261483|   -8.463883|    0.823996|    0.012022|
|         615|   -6.270749|   -8.462328|    0.823996|    0.012022|
|         616|   -6.278141|   -8.460250|    0.823996|    0.012023|
|         617|   -6.286048|   -8.457649|    0.823995|    0.012023|
|         618|   -6.295515|   -8.454553|    0.823995|    0.012023|
|         619|   -6.306331|   -8.451016|    0.823995|    0.012023|
|         620|   -6.317714|   -8.447116|    0.823995|    0.012023|
|         621|   -6.329045|   -8.442943|    0.823995|    0.012023|
|         622|   -6.340185|   -8.438601|    0.823995|    0.012023|
|         623|   -6.351325|   -8.434193|    0.823995|    0.012023|
|         624|   -6.362609|   -8.429823|    0.823995|    0.012023|
|         625|   -6.373878|   -8.425592|    0.823994|    0.012023|
|         626|   -6.384682|   -8.421587|    0.823994|    0.012024|
|         627|   -6.394470|   -8.417891|    0.823994|    0.012024|
|         628|   -6.402816|   -8.414569|    0.823994|    0.012024|
|         629|   -6.409547|   -8.411674|    0.823994|    0.012024|
|         630|   -6.414753|   -8.409247|    0.823994|    0.012024|
|         631|   -6.418720|   -8.407315|    0.823994|    0.012024|
|         632|   -6.421850|   -8.405889|    0.823994|    0.012024|
|         633|   -6.424571|   -8.404970|    0.823994|    0.012024|
|         634|   -6.427267|   -8.404547|    0.823994|    0.012024|
|         635|   -6.430217|   -8.404595|    0.823994|    0.012024|
|         636|   -6.433554|   -8.405085|    0.823994|    0.012025|
|         637|   -6.437269|   -8.405975|    0.823994|    0.012025|
|         638|   -6.441228|   -8.407222|    0.823994|    0.012025|
|         639|   -6.445215|   -8.408775|    0.823994|    0.012025|
|         640|   -6.448981|   -8.410584|    0.823994|    0.012025|
|         641|   -6.452294|   -8.412598|    0.823994|    0.012025|
|         642|   -6.454988|   -8.414767|    0.823994|    0.012025|
|         643|   -6.456994|   -8.417046|    0.823994|    0.012025|
|         644|   -6.458356|   -8.419396|    0.823994|    0.012025|
|         645|   -6.459211|   -8.421781|    0.823994|    0.012025|
|         646|   -6.459761|   -8.424177|    0.823994|    0.012025|
|         647|   -6.460222|   -8.426564|    0.823994|    0.012025|
|         648|   -6.460780|   -8.428931|    0.823994|    0.012025|
|         649|   -6.461567|   -8.431276|    0.823994|    0.012025|
|         650|   -6.462647|   -8.433602|    0.823994|    0.012025|
|         651|   -6.464022|   -8.435916|    0.823994|    0.012026|
|         652|   -6.465649|   -8.438232|    0.823994|    0.012026|
|         653|   -6.467461|   -8.440563|    0.823994|    0.012026|
|         654|   -6.469392|   -8.442926|    0.823994|    0.012026|
|         655|   -6.471387|   -8.445335|    0.823994|    0.012026|
|         656|   -6.473417|   -8.447804|    0.823994|    0.012026|
|         657|   -6.475475|   -8.450343|    0.823994|    0.012026|
|         658|   -6.477577|   -8.452961|    0.823993|    0.012026|
|         659|   -6.479748|   -8.455661|    0.823993|    0.012026|
|         660|   -6.482021|   -8.458444|    0.823993|    0.012026|
|         661|   -6.484422|   -8.461306|    0.823993|    0.012026|
|         662|   -6.486974|   -8.464242|    0.823993|    0.012025|
|         663|   -6.489690|   -8.467245|    0.823993|    0.012025|
|         664|   -6.492576|   -8.470307|    0.823993|    0.012025|
|         665|   -6.495633|   -8.473418|    0.823993|    0.012025|
|         666|   -6.498859|   -8.476572|    0.823993|    0.012025|
|         667|   -6.502253|   -8.479763|    0.823993|    0.012025|
|         668|   -6.505812|   -8.482990|    0.823993|    0.012025|
|         669|   -6.509536|   -8.486252|    0.823993|    0.012025|
|         670|   -6.513424|   -8.489557|    0.823993|    0.012025|
|         671|   -6.517475|   -8.492911|    0.823993|    0.012025|
|         672|   -6.521686|   -8.496328|    0.823993|    0.012025|
|         673|   -6.526050|   -8.499822|    0.823993|    0.012025|
|         674|   -6.530556|   -8.503409|    0.823993|    0.012025|
|         675|   -6.535191|   -8.507109|    0.823993|    0.012025|
|         676|   -6.539935|   -8.510938|    0.823993|    0.012025|
|         677|   -6.544765|   -8.514912|    0.823993|    0.012024|
|         678|   -6.549655|   -8.519043|    0.823993|    0.012024|
|         679|   -6.554576|   -8.523342|    0.823993|    0.012024|
|         680|   -6.559494|   -8.527809|    0.823993|    0.012024|
|         681|   -6.564377|   -8.532444|    0.823993|    0.012024|
|         682|   -6.569190|   -8.537236|    0.823993|    0.012024|
|         683|   -6.573899|   -8.542167|    0.823993|    0.012024|
|         684|   -6.578470|   -8.547214|    0.823993|    0.012024|
|         685|   -6.582873|   -8.552344|    0.823993|    0.012024|
|         686|   -6.587079|   -8.557518|    0.823993|    0.012024|
|         687|   -6.591066|   -8.562694|    0.823993|    0.012024|
|         688|   -6.594815|   -8.567822|    0.823993|    0.012023|
|         689|   -6.598314|   -8.572854|    0.823993|    0.012023|
|         690|   -6.601556|   -8.577739|    0.823993|    0.012023|
|         691|   -6.604543|   -8.582429|    0.823993|    0.012023|
|         692|   -6.607282|   -8.586882|    0.823993|    0.012023|
|         693|   -6.609786|   -8.591062|    0.823994|    0.012023|
|         694|   -6.612073|   -8.594942|    0.823994|    0.012023|
|         695|   -6.614168|   -8.598506|    0.823994|    0.012023|
|         696|   -6.616099|   -8.601748|    0.823994|    0.012023|
|         697|   -6.617896|   -8.604674|    0.823994|    0.012023|
|         698|   -6.619592|   -8.607303|    0.823994|    0.012023|
|         699|   -6.621220|   -8.609660|    0.823994|    0.012023|
|         700|   -6.622811|   -8.611781|    0.823994|    0.012023|
|         701|   -6.624397|   -8.613707|    0.823994|    0.012023|
+-----------------------------------------------------------------------+
|Fixed CL Mode                           |Value                         |
+-----------------------------------------------------------------------+
|Current CL                              |0.823994                      |
|Target CL                               |0.824                         |
|Previous AOA                            |2.79007                       |
|Changed AoA by                          |3.00215e-05                   |
+-----------------------------------------------------------------------+
+----------------------------------------------------------------+
|  Inner_Iter|    rms[Rho]|     rms[nu]|          CL|          CD|
+----------------------------------------------------------------+
|         702|   -4.716055|   -8.543353|    0.823994|    0.012023|
|         703|   -5.101023|   -8.578472|    0.823994|    0.012023|
|         704|   -5.345522|   -8.590518|    0.823994|    0.012023|
|         705|   -5.423696|   -8.597849|    0.823994|    0.012023|
|         706|   -5.476586|   -8.603597|    0.823994|    0.012023|
|         707|   -5.545652|   -8.608494|    0.823994|    0.012023|
|         708|   -5.631401|   -8.612765|    0.823994|    0.012023|
|         709|   -5.721229|   -8.616545|    0.823994|    0.012023|
|         710|   -5.798848|   -8.619923|    0.823995|    0.012023|
|         711|   -5.855900|   -8.622938|    0.823995|    0.012023|
|         712|   -5.893783|   -8.625645|    0.823995|    0.012023|
|         713|   -5.916078|   -8.628153|    0.823995|    0.012023|
|         714|   -5.926440|   -8.630620|    0.823995|    0.012023|
|         715|   -5.930643|   -8.633167|    0.823995|    0.012023|
|         716|   -5.935334|   -8.635836|    0.823995|    0.012023|
|         717|   -5.945029|   -8.638623|    0.823995|    0.012023|
|         718|   -5.960835|   -8.641519|    0.823995|    0.012023|
|         719|   -5.981005|   -8.644535|    0.823995|    0.012023|
|         720|   -6.002438|   -8.647689|    0.823995|    0.012023|
|         721|   -6.022514|   -8.651003|    0.823995|    0.012023|
|         722|   -6.040384|   -8.654460|    0.823995|    0.012023|
|         723|   -6.056889|   -8.658032|    0.823995|    0.012023|
|         724|   -6.073408|   -8.661674|    0.823995|    0.012023|
|         725|   -6.090762|   -8.665349|    0.823995|    0.012023|
|         726|   -6.108845|   -8.669025|    0.823996|    0.012023|
|         727|   -6.126870|   -8.672686|    0.823996|    0.012023|
|         728|   -6.143804|   -8.676326|    0.823996|    0.012023|
|         729|   -6.158734|   -8.679946|    0.823996|    0.012023|
|         730|   -6.171064|   -8.683555|    0.823996|    0.012023|
|         731|   -6.180636|   -8.687160|    0.823996|    0.012023|
|         732|   -6.187789|   -8.690774|    0.823996|    0.012023|
|         733|   -6.193322|   -8.694405|    0.823996|    0.012023|
|         734|   -6.198320|   -8.698057|    0.823996|    0.012023|
|         735|   -6.203885|   -8.701730|    0.823996|    0.012023|
|         736|   -6.210904|   -8.705415|    0.823996|    0.012023|
|         737|   -6.219903|   -8.709099|    0.823996|    0.012023|
|         738|   -6.230997|   -8.712763|    0.823996|    0.012023|
|         739|   -6.243898|   -8.716387|    0.823997|    0.012023|
|         740|   -6.257949|   -8.719952|    0.823997|    0.012023|
|         741|   -6.272218|   -8.723439|    0.823997|    0.012023|
|         742|   -6.285668|   -8.726835|    0.823997|    0.012023|
|         743|   -6.297399|   -8.730125|    0.823997|    0.012024|
|         744|   -6.306911|   -8.733306|    0.823997|    0.012024|
|         745|   -6.314256|   -8.736372|    0.823997|    0.012024|
|         746|   -6.320000|   -8.739319|    0.823997|    0.012024|
|         747|   -6.325008|   -8.742142|    0.823997|    0.012024|
|         748|   -6.330175|   -8.744833|    0.823997|    0.012024|
|         749|   -6.336205|   -8.747386|    0.823998|    0.012024|
|         750|   -6.343488|   -8.749789|    0.823998|    0.012024|
|         751|   -6.352084|   -8.752029|    0.823998|    0.012024|
|         752|   -6.361763|   -8.754096|    0.823998|    0.012024|
|         753|   -6.372100|   -8.755975|    0.823998|    0.012024|
|         754|   -6.382577|   -8.757659|    0.823998|    0.012024|
|         755|   -6.392705|   -8.759144|    0.823998|    0.012024|
|         756|   -6.402114|   -8.760424|    0.823998|    0.012024|
|         757|   -6.410613|   -8.761503|    0.823999|    0.012024|
|         758|   -6.418195|   -8.762403|    0.823999|    0.012024|
|         759|   -6.424992|   -8.763147|    0.823999|    0.012024|
|         760|   -6.431214|   -8.763767|    0.823999|    0.012024|
|         761|   -6.437079|   -8.764300|    0.823999|    0.012024|
|         762|   -6.442760|   -8.764792|    0.823999|    0.012025|
|         763|   -6.448365|   -8.765294|    0.824000|    0.012025|
|         764|   -6.453935|   -8.765866|    0.824000|    0.012025|
|         765|   -6.459460|   -8.766572|    0.824000|    0.012025|
|         766|   -6.464898|   -8.767475|    0.824000|    0.012025|
|         767|   -6.470199|   -8.768639|    0.824000|    0.012025|
|         768|   -6.475321|   -8.770121|    0.824001|    0.012025|
|         769|   -6.480237|   -8.771977|    0.824001|    0.012025|
|         770|   -6.484935|   -8.774249|    0.824001|    0.012025|
|         771|   -6.489414|   -8.776972|    0.824001|    0.012025|
|         772|   -6.493677|   -8.780172|    0.824001|    0.012025|
|         773|   -6.497729|   -8.783855|    0.824001|    0.012025|
|         774|   -6.501568|   -8.788013|    0.824002|    0.012025|
|         775|   -6.505189|   -8.792623|    0.824002|    0.012025|
|         776|   -6.508582|   -8.797647|    0.824002|    0.012025|
|         777|   -6.511736|   -8.803033|    0.824002|    0.012025|
|         778|   -6.514640|   -8.808711|    0.824002|    0.012025|
|         779|   -6.517290|   -8.814599|    0.824002|    0.012025|
|         780|   -6.519682|   -8.820601|    0.824002|    0.012025|
|         781|   -6.521822|   -8.826617|    0.824002|    0.012025|
|         782|   -6.523718|   -8.832541|    0.824003|    0.012025|
|         783|   -6.525384|   -8.838271|    0.824003|    0.012025|
|         784|   -6.526839|   -8.843713|    0.824003|    0.012025|
|         785|   -6.528104|   -8.848784|    0.824003|    0.012025|
|         786|   -6.529203|   -8.853423|    0.824003|    0.012025|
|         787|   -6.530164|   -8.857590|    0.824003|    0.012024|
|         788|   -6.531013|   -8.861271|    0.824003|    0.012024|
|         789|   -6.531781|   -8.864477|    0.824002|    0.012024|
|         790|   -6.532495|   -8.867245|    0.824002|    0.012024|
|         791|   -6.533183|   -8.869632|    0.824002|    0.012024|
|         792|   -6.533874|   -8.871714|    0.824002|    0.012024|
|         793|   -6.534590|   -8.873577|    0.824002|    0.012024|
|         794|   -6.535355|   -8.875312|    0.824002|    0.012024|
|         795|   -6.536187|   -8.877008|    0.824002|    0.012024|
|         796|   -6.537099|   -8.878752|    0.824002|    0.012024|
|         797|   -6.538104|   -8.880616|    0.824002|    0.012024|
|         798|   -6.539208|   -8.882661|    0.824002|    0.012024|
|         799|   -6.540413|   -8.884930|    0.824001|    0.012024|
|         800|   -6.541718|   -8.887447|    0.824001|    0.012024|
|         801|   -6.543116|   -8.890217|    0.824001|    0.012024|
+-----------------------------------------------------------------------+
|Fixed CL Mode                           |Value                         |
+-----------------------------------------------------------------------+
|Current CL                              |0.824001                      |
|Target CL                               |0.824                         |
|Previous AOA                            |2.7901                        |
|Changed AoA by                          |-6.39115e-06                  |
+-----------------------------------------------------------------------+
+----------------------------------------------------------------+
|  Inner_Iter|    rms[Rho]|     rms[nu]|          CL|          CD|
+----------------------------------------------------------------+
|         802|   -5.386598|   -8.879577|    0.824001|    0.012024|
|         803|   -5.766879|   -8.889577|    0.824001|    0.012024|
|         804|   -6.003116|   -8.894914|    0.824001|    0.012023|
|         805|   -6.078240|   -8.899351|    0.824001|    0.012023|
|         806|   -6.127488|   -8.903421|    0.824000|    0.012023|
|         807|   -6.188077|   -8.907201|    0.824000|    0.012023|
|         808|   -6.257808|   -8.910665|    0.824000|    0.012023|
|         809|   -6.322882|   -8.913759|    0.824000|    0.012023|
|         810|   -6.370644|   -8.916414|    0.824000|    0.012023|
|         811|   -6.399467|   -8.918555|    0.824000|    0.012023|
|         812|   -6.414987|   -8.920119|    0.824000|    0.012023|
|         813|   -6.422257|   -8.921075|    0.824000|    0.012023|
|         814|   -6.424587|   -8.921424|    0.823999|    0.012023|
|         815|   -6.425069|   -8.921187|    0.823999|    0.012023|
|         816|   -6.426550|   -8.920403|    0.823999|    0.012023|
|         817|   -6.430665|   -8.919129|    0.823999|    0.012023|
|         818|   -6.437404|   -8.917446|    0.823999|    0.012023|
|         819|   -6.445506|   -8.915454|    0.823999|    0.012023|
|         820|   -6.453346|   -8.913266|    0.823999|    0.012023|
|         821|   -6.459815|   -8.911002|    0.823999|    0.012023|
|         822|   -6.464699|   -8.908777|    0.823999|    0.012023|
|         823|   -6.468443|   -8.906700|    0.823999|    0.012023|
|         824|   -6.471645|   -8.904867|    0.823999|    0.012023|
|         825|   -6.474682|   -8.903369|    0.823999|    0.012023|
|         826|   -6.477639|   -8.902281|    0.823999|    0.012023|
|         827|   -6.480417|   -8.901669|    0.823999|    0.012023|
|         828|   -6.482867|   -8.901584|    0.823999|    0.012023|
|         829|   -6.484864|   -8.902063|    0.823999|    0.012023|
|         830|   -6.486331|   -8.903130|    0.823999|    0.012023|
|         831|   -6.487248|   -8.904797|    0.823999|    0.012023|
|         832|   -6.487667|   -8.907061|    0.823999|    0.012023|
|         833|   -6.487711|   -8.909908|    0.823999|    0.012023|
|         834|   -6.487562|   -8.913311|    0.824000|    0.012023|
|         835|   -6.487417|   -8.917232|    0.824000|    0.012023|
|         836|   -6.487449|   -8.921623|    0.824000|    0.012023|
|         837|   -6.487776|   -8.926419|    0.824000|    0.012023|
|         838|   -6.488445|   -8.931549|    0.824000|    0.012023|
|         839|   -6.489437|   -8.936933|    0.824000|    0.012023|
|         840|   -6.490683|   -8.942481|    0.824000|    0.012023|
|         841|   -6.492088|   -8.948101|    0.824000|    0.012023|
|         842|   -6.493553|   -8.953695|    0.824000|    0.012023|
|         843|   -6.495012|   -8.959170|    0.824000|    0.012023|
|         844|   -6.496441|   -8.964436|    0.824001|    0.012023|
|         845|   -6.497870|   -8.969411|    0.824001|    0.012023|
|         846|   -6.499369|   -8.974031|    0.824001|    0.012023|
|         847|   -6.501029|   -8.978242|    0.824001|    0.012023|
|         848|   -6.502938|   -8.982019|    0.824001|    0.012023|
|         849|   -6.505163|   -8.985350|    0.824001|    0.012023|
|         850|   -6.507736|   -8.988249|    0.824001|    0.012023|
|         851|   -6.510656|   -8.990752|    0.824001|    0.012023|
|         852|   -6.513892|   -8.992912|    0.824001|    0.012023|
|         853|   -6.517397|   -8.994797|    0.824001|    0.012023|
|         854|   -6.521120|   -8.996487|    0.824001|    0.012023|
|         855|   -6.525012|   -8.998067|    0.824001|    0.012023|
|         856|   -6.529037|   -8.999627|    0.824001|    0.012023|
|         857|   -6.533174|   -9.001252|    0.824001|    0.012023|
|         858|   -6.537412|   -9.003025|    0.824001|    0.012023|
|         859|   -6.541746|   -9.005016|    0.824001|    0.012023|
|         860|   -6.546174|   -9.007287|    0.824001|    0.012023|
|         861|   -6.550692|   -9.009885|    0.824001|    0.012023|
|         862|   -6.555288|   -9.012841|    0.824001|    0.012023|
|         863|   -6.559940|   -9.016171|    0.824001|    0.012023|
|         864|   -6.564622|   -9.019875|    0.824001|    0.012023|
|         865|   -6.569296|   -9.023935|    0.824001|    0.012023|
|         866|   -6.573924|   -9.028317|    0.824001|    0.012023|
|         867|   -6.578460|   -9.032969|    0.824001|    0.012023|
|         868|   -6.582861|   -9.037826|    0.824001|    0.012023|
|         869|   -6.587080|   -9.042808|    0.824001|    0.012023|
|         870|   -6.591073|   -9.047825|    0.824001|    0.012023|
|         871|   -6.594795|   -9.052778|    0.824001|    0.012023|
|         872|   -6.598205|   -9.057566|    0.824000|    0.012023|
|         873|   -6.601264|   -9.062087|    0.824000|    0.012023|
|         874|   -6.603936|   -9.066245|    0.824000|    0.012023|
|         875|   -6.606191|   -9.069958|    0.824000|    0.012023|
|         876|   -6.608002|   -9.073158|    0.824000|    0.012023|
|         877|   -6.609353|   -9.075799|    0.824000|    0.012023|
|         878|   -6.610232|   -9.077858|    0.824000|    0.012023|
|         879|   -6.610637|   -9.079336|    0.824000|    0.012023|
|         880|   -6.610574|   -9.080261|    0.824000|    0.012023|
|         881|   -6.610058|   -9.080680|    0.824000|    0.012024|
|         882|   -6.609110|   -9.080660|    0.824000|    0.012024|
|         883|   -6.607761|   -9.080280|    0.824000|    0.012024|
|         884|   -6.606045|   -9.079628|    0.824000|    0.012024|
|         885|   -6.604003|   -9.078794|    0.824000|    0.012024|
|         886|   -6.601680|   -9.077867|    0.824000|    0.012024|
|         887|   -6.599123|   -9.076928|    0.823999|    0.012024|
|         888|   -6.596381|   -9.076051|    0.823999|    0.012024|
|         889|   -6.593502|   -9.075296|    0.823999|    0.012024|
|         890|   -6.590537|   -9.074712|    0.823999|    0.012024|
|         891|   -6.587533|   -9.074333|    0.823999|    0.012024|
|         892|   -6.584535|   -9.074180|    0.823999|    0.012024|
|         893|   -6.581586|   -9.074259|    0.823999|    0.012024|
|         894|   -6.578729|   -9.074566|    0.823999|    0.012024|
|         895|   -6.575998|   -9.075085|    0.823999|    0.012024|
|         896|   -6.573430|   -9.075791|    0.823999|    0.012023|
|         897|   -6.571053|   -9.076651|    0.823999|    0.012023|
|         898|   -6.568897|   -9.077629|    0.823999|    0.012023|
|         899|   -6.566984|   -9.078682|    0.823999|    0.012023|
|         900|   -6.565337|   -9.079770|    0.823999|    0.012023|
|         901|   -6.563973|   -9.080851|    0.823999|    0.012024|
+-----------------------------------------------------------------------+
|Fixed CL Mode                           |Value                         |
+-----------------------------------------------------------------------+
|Current CL                              |0.823999                      |
|Target CL                               |0.824                         |
|Previous AOA                            |2.79009                       |
[...]
|        5298|   -6.037352|   -7.943377|    0.824237|    0.012027|
|        5299|   -6.043991|   -7.947069|    0.824237|    0.012027|
|        5300|   -6.050248|   -7.950780|    0.824237|    0.012027|
|        5301|   -6.056084|   -7.954525|    0.824237|    0.012027|
|        5302|   -6.061472|   -7.958316|    0.824238|    0.012027|
|        5303|   -6.066395|   -7.962163|    0.824238|    0.012027|
|        5304|   -6.070850|   -7.966070|    0.824238|    0.012027|
|        5305|   -6.074843|   -7.970043|    0.824238|    0.012027|
|        5306|   -6.078392|   -7.974084|    0.824238|    0.012027|
|        5307|   -6.081527|   -7.978192|    0.824238|    0.012027|
|        5308|   -6.084284|   -7.982370|    0.824238|    0.012027|
|        5309|   -6.086709|   -7.986618|    0.824238|    0.012027|
|        5310|   -6.088851|   -7.990939|    0.824238|    0.012027|
|        5311|   -6.090765|   -7.995331|    0.824238|    0.012027|
|        5312|   -6.092506|   -7.999798|    0.824239|    0.012027|
|        5313|   -6.094130|   -8.004339|    0.824239|    0.012027|
|        5314|   -6.095692|   -8.008958|    0.824239|    0.012027|
|        5315|   -6.097244|   -8.013658|    0.824239|    0.012027|
|        5316|   -6.098834|   -8.018444|    0.824239|    0.012027|
|        5317|   -6.100505|   -8.023321|    0.824239|    0.012027|
|        5318|   -6.102295|   -8.028295|    0.824239|    0.012027|
|        5319|   -6.104237|   -8.033371|    0.824239|    0.012027|
|        5320|   -6.106357|   -8.038555|    0.824240|    0.012027|
|        5321|   -6.108674|   -8.043851|    0.824240|    0.012027|
|        5322|   -6.111200|   -8.049264|    0.824240|    0.012027|
|        5323|   -6.113943|   -8.054797|    0.824240|    0.012027|
|        5324|   -6.116901|   -8.060450|    0.824240|    0.012027|
|        5325|   -6.120068|   -8.066224|    0.824240|    0.012027|
|        5326|   -6.123432|   -8.072115|    0.824240|    0.012027|
|        5327|   -6.126972|   -8.078119|    0.824241|    0.012027|
|        5328|   -6.130665|   -8.084231|    0.824241|    0.012027|
|        5329|   -6.134481|   -8.090443|    0.824241|    0.012028|
|        5330|   -6.138387|   -8.096745|    0.824241|    0.012028|
|        5331|   -6.142346|   -8.103126|    0.824241|    0.012028|
|        5332|   -6.146319|   -8.109576|    0.824241|    0.012028|
|        5333|   -6.150264|   -8.116082|    0.824241|    0.012028|
|        5334|   -6.154141|   -8.122631|    0.824242|    0.012028|
|        5335|   -6.157910|   -8.129210|    0.824242|    0.012028|
|        5336|   -6.161535|   -8.135807|    0.824242|    0.012028|
|        5337|   -6.164981|   -8.142408|    0.824242|    0.012028|
|        5338|   -6.168221|   -8.149002|    0.824242|    0.012028|
|        5339|   -6.171234|   -8.155579|    0.824242|    0.012028|
|        5340|   -6.174005|   -8.162129|    0.824242|    0.012029|
|        5341|   -6.176526|   -8.168646|    0.824242|    0.012029|
|        5342|   -6.178799|   -8.175125|    0.824243|    0.012029|
|        5343|   -6.180834|   -8.181558|    0.824243|    0.012029|
|        5344|   -6.182646|   -8.187939|    0.824243|    0.012029|
|        5345|   -6.184261|   -8.194264|    0.824243|    0.012029|
|        5346|   -6.185709|   -8.200529|    0.824243|    0.012029|
|        5347|   -6.187026|   -8.206736|    0.824243|    0.012029|
|        5348|   -6.188249|   -8.212883|    0.824243|    0.012029|
|        5349|   -6.189421|   -8.218974|    0.824243|    0.012029|
|        5350|   -6.190585|   -8.225012|    0.824243|    0.012029|
|        5351|   -6.191783|   -8.230999|    0.824243|    0.012029|
|        5352|   -6.193056|   -8.236939|    0.824243|    0.012029|
|        5353|   -6.194446|   -8.242836|    0.824243|    0.012029|
|        5354|   -6.195989|   -8.248692|    0.824243|    0.012029|
|        5355|   -6.197720|   -8.254511|    0.824243|    0.012029|
|        5356|   -6.199670|   -8.260296|    0.824243|    0.012029|
|        5357|   -6.201863|   -8.266047|    0.824243|    0.012029|
|        5358|   -6.204324|   -8.271767|    0.824243|    0.012029|
|        5359|   -6.207068|   -8.277456|    0.824243|    0.012029|
|        5360|   -6.210110|   -8.283115|    0.824243|    0.012029|
|        5361|   -6.213456|   -8.288743|    0.824243|    0.012029|
|        5362|   -6.217110|   -8.294339|    0.824243|    0.012029|
|        5363|   -6.221070|   -8.299902|    0.824243|    0.012029|
|        5364|   -6.225330|   -8.305430|    0.824243|    0.012029|
|        5365|   -6.229877|   -8.310923|    0.824243|    0.012029|
|        5366|   -6.234695|   -8.316380|    0.824243|    0.012029|
|        5367|   -6.239762|   -8.321798|    0.824243|    0.012029|
|        5368|   -6.245053|   -8.327182|    0.824243|    0.012029|
|        5369|   -6.250537|   -8.332531|    0.824243|    0.012029|
|        5370|   -6.256179|   -8.337842|    0.824243|    0.012029|
|        5371|   -6.261941|   -8.343113|    0.824243|    0.012029|
|        5372|   -6.267780|   -8.348345|    0.824243|    0.012029|
|        5373|   -6.273652|   -8.353538|    0.824243|    0.012029|
|        5374|   -6.279510|   -8.358693|    0.824243|    0.012029|
|        5375|   -6.285306|   -8.363811|    0.824243|    0.012029|
|        5376|   -6.290992|   -8.368897|    0.824243|    0.012029|
|        5377|   -6.296520|   -8.373955|    0.824243|    0.012029|
|        5378|   -6.301844|   -8.378989|    0.824243|    0.012029|
|        5379|   -6.306923|   -8.384005|    0.824243|    0.012029|
|        5380|   -6.311718|   -8.389012|    0.824243|    0.012028|
|        5381|   -6.316196|   -8.394015|    0.824243|    0.012028|
|        5382|   -6.320332|   -8.399024|    0.824243|    0.012028|
|        5383|   -6.324104|   -8.404044|    0.824243|    0.012028|
|        5384|   -6.327500|   -8.409084|    0.824243|    0.012028|
|        5385|   -6.330516|   -8.414152|    0.824243|    0.012028|
|        5386|   -6.333151|   -8.419252|    0.824243|    0.012028|
|        5387|   -6.335415|   -8.424390|    0.824243|    0.012028|
|        5388|   -6.337321|   -8.429569|    0.824243|    0.012028|
|        5389|   -6.338889|   -8.434792|    0.824243|    0.012028|
|        5390|   -6.340139|   -8.440058|    0.824243|    0.012028|
|        5391|   -6.341099|   -8.445365|    0.824243|    0.012027|
|        5392|   -6.341795|   -8.450708|    0.824243|    0.012027|
|        5393|   -6.342254|   -8.456080|    0.824243|    0.012027|
|        5394|   -6.342505|   -8.461471|    0.824243|    0.012027|
|        5395|   -6.342573|   -8.466869|    0.824243|    0.012027|
|        5396|   -6.342484|   -8.472259|    0.824243|    0.012027|
|        5397|   -6.342260|   -8.477623|    0.824244|    0.012027|
|        5398|   -6.341921|   -8.482944|    0.824244|    0.012027|
|        5399|   -6.341486|   -8.488201|    0.824244|    0.012027|
|        5400|   -6.340970|   -8.493372|    0.824244|    0.012027|
|        5401|   -6.340386|   -8.498436|    0.824244|    0.012026|
|        5402|   -6.339744|   -8.503371|    0.824244|    0.012026|
|        5403|   -6.339054|   -8.508157|    0.824244|    0.012026|
|        5404|   -6.338321|   -8.512773|    0.824245|    0.012026|
|        5405|   -6.337551|   -8.517203|    0.824245|    0.012026|
|        5406|   -6.336749|   -8.521429|    0.824245|    0.012026|
|        5407|   -6.335918|   -8.525441|    0.824245|    0.012026|
|        5408|   -6.335059|   -8.529229|    0.824245|    0.012026|
|        5409|   -6.334177|   -8.532788|    0.824245|    0.012026|
|        5410|   -6.333272|   -8.536114|    0.824246|    0.012026|
|        5411|   -6.332348|   -8.539210|    0.824246|    0.012026|
|        5412|   -6.331406|   -8.542080|    0.824246|    0.012026|
|        5413|   -6.330450|   -8.544728|    0.824246|    0.012025|
|        5414|   -6.329483|   -8.547164|    0.824246|    0.012025|
|        5415|   -6.328508|   -8.549400|    0.824246|    0.012025|
|        5416|   -6.327531|   -8.551447|    0.824246|    0.012025|
|        5417|   -6.326556|   -8.553320|    0.824247|    0.012025|
|        5418|   -6.325590|   -8.555031|    0.824247|    0.012025|
|        5419|   -6.324638|   -8.556592|    0.824247|    0.012025|
|        5420|   -6.323708|   -8.558016|    0.824247|    0.012025|
|        5421|   -6.322808|   -8.559314|    0.824247|    0.012025|
|        5422|   -6.321947|   -8.560495|    0.824247|    0.012025|
|        5423|   -6.321135|   -8.561570|    0.824247|    0.012025|
|        5424|   -6.320381|   -8.562546|    0.824247|    0.012025|
|        5425|   -6.319696|   -8.563430|    0.824247|    0.012025|
|        5426|   -6.319094|   -8.564228|    0.824248|    0.012025|
|        5427|   -6.318585|   -8.564947|    0.824248|    0.012025|
|        5428|   -6.318183|   -8.565593|    0.824248|    0.012025|
|        5429|   -6.317901|   -8.566170|    0.824248|    0.012025|
|        5430|   -6.317753|   -8.566685|    0.824248|    0.012025|
|        5431|   -6.317754|   -8.567146|    0.824248|    0.012025|
|        5432|   -6.317917|   -8.567559|    0.824248|    0.012025|
|        5433|   -6.318257|   -8.567932|    0.824248|    0.012025|
|        5434|   -6.318788|   -8.568276|    0.824248|    0.012025|
|        5435|   -6.319522|   -8.568600|    0.824248|    0.012025|
|        5436|   -6.320474|   -8.568917|    0.824248|    0.012025|
|        5437|   -6.321655|   -8.569237|    0.824248|    0.012025|
|        5438|   -6.323076|   -8.569575|    0.824248|    0.012025|
|        5439|   -6.324746|   -8.569943|    0.824248|    0.012025|
|        5440|   -6.326674|   -8.570356|    0.824248|    0.012025|
|        5441|   -6.328866|   -8.570828|    0.824248|    0.012025|
|        5442|   -6.331327|   -8.571371|    0.824248|    0.012025|
|        5443|   -6.334058|   -8.572000|    0.824248|    0.012025|
|        5444|   -6.337059|   -8.572726|    0.824248|    0.012025|
|        5445|   -6.340327|   -8.573562|    0.824248|    0.012025|
|        5446|   -6.343855|   -8.574518|    0.824248|    0.012026|
|        5447|   -6.347634|   -8.575603|    0.824248|    0.012026|
|        5448|   -6.351652|   -8.576826|    0.824248|    0.012026|
|        5449|   -6.355893|   -8.578193|    0.824248|    0.012026|
|        5450|   -6.360337|   -8.579710|    0.824248|    0.012026|
|        5451|   -6.364962|   -8.581381|    0.824248|    0.012026|
|        5452|   -6.369739|   -8.583208|    0.824248|    0.012026|
|        5453|   -6.374638|   -8.585194|    0.824248|    0.012026|
|        5454|   -6.379626|   -8.587338|    0.824248|    0.012026|
|        5455|   -6.384666|   -8.589640|    0.824247|    0.012026|
|        5456|   -6.389716|   -8.592097|    0.824247|    0.012026|
|        5457|   -6.394735|   -8.594707|    0.824247|    0.012026|
|        5458|   -6.399678|   -8.597467|    0.824247|    0.012026|
|        5459|   -6.404499|   -8.600371|    0.824247|    0.012026|
|        5460|   -6.409153|   -8.603415|    0.824247|    0.012027|
|        5461|   -6.413595|   -8.606594|    0.824247|    0.012027|
|        5462|   -6.417781|   -8.609901|    0.824247|    0.012027|
|        5463|   -6.421671|   -8.613332|    0.824246|    0.012027|
|        5464|   -6.425228|   -8.616879|    0.824246|    0.012027|
|        5465|   -6.428423|   -8.620536|    0.824246|    0.012027|
|        5466|   -6.431228|   -8.624296|    0.824246|    0.012027|
|        5467|   -6.433626|   -8.628153|    0.824246|    0.012027|
|        5468|   -6.435606|   -8.632099|    0.824246|    0.012027|
|        5469|   -6.437164|   -8.636127|    0.824246|    0.012027|
|        5470|   -6.438304|   -8.640231|    0.824245|    0.012027|
|        5471|   -6.439039|   -8.644402|    0.824245|    0.012027|
|        5472|   -6.439385|   -8.648632|    0.824245|    0.012027|
|        5473|   -6.439369|   -8.652915|    0.824245|    0.012027|
|        5474|   -6.439021|   -8.657241|    0.824245|    0.012027|
|        5475|   -6.438374|   -8.661602|    0.824244|    0.012027|
|        5476|   -6.437467|   -8.665990|    0.824244|    0.012027|
|        5477|   -6.436339|   -8.670396|    0.824244|    0.012027|
|        5478|   -6.435032|   -8.674809|    0.824244|    0.012028|
|        5479|   -6.433587|   -8.679222|    0.824244|    0.012028|
|        5480|   -6.432046|   -8.683624|    0.824243|    0.012028|
|        5481|   -6.430447|   -8.688006|    0.824243|    0.012028|
|        5482|   -6.428830|   -8.692359|    0.824243|    0.012028|
|        5483|   -6.427230|   -8.696673|    0.824243|    0.012028|
|        5484|   -6.425680|   -8.700940|    0.824243|    0.012028|
|        5485|   -6.424211|   -8.705151|    0.824243|    0.012028|
|        5486|   -6.422851|   -8.709299|    0.824242|    0.012028|
|        5487|   -6.421626|   -8.713378|    0.824242|    0.012028|
|        5488|   -6.420556|   -8.717380|    0.824242|    0.012028|
|        5489|   -6.419661|   -8.721301|    0.824242|    0.012028|
|        5490|   -6.418959|   -8.725139|    0.824242|    0.012028|
|        5491|   -6.418462|   -8.728889|    0.824242|    0.012028|
|        5492|   -6.418183|   -8.732551|    0.824241|    0.012027|
|        5493|   -6.418130|   -8.736126|    0.824241|    0.012027|
|        5494|   -6.418310|   -8.739613|    0.824241|    0.012027|
|        5495|   -6.418729|   -8.743016|    0.824241|    0.012027|
|        5496|   -6.419390|   -8.746338|    0.824241|    0.012027|
|        5497|   -6.420295|   -8.749583|    0.824241|    0.012027|
|        5498|   -6.421443|   -8.752756|    0.824241|    0.012027|
|        5499|   -6.422833|   -8.755861|    0.824241|    0.012013|
+-----------------------------------------------------------------------+
|Fixed CL Mode (Finite Difference)       |Value                         |
+-----------------------------------------------------------------------+
|Delta CL / Delta AoA                    |0.240678                      |
|Delta CD / Delta CL                     |0.017481                      |
|Delta CMz / Delta CL                    |5.08686e-05                   |
+-----------------------------------------------------------------------+
Writing Flow Meta-Data file: flow.meta

----------------------------- Solver Exit -------------------------------

Maximum number of iterations reached (ITER = 5500) before convergence.
+-----------------------------------------------------------------------+
|      Convergence Field     |     Value    |   Criterion  |  Converged |
+-----------------------------------------------------------------------+
|                    rms[Rho]|      -6.42283|         < -12|          No|
+-----------------------------------------------------------------------+
-------------------------------------------------------------------------

--------------------------- Finalizing Solver ---------------------------
Deleted CNumerics container.
Deleted CIntegration container.
Deleted CSolver container.
Deleted CIteration container.
Deleted CInterface container.
Deleted CGeometry container.
Deleted CFreeFormDefBox class.
Deleted CSurfaceMovement class.
Deleted CVolumetricMovement class.
Deleted CConfig container.
Deleted nInst container.
Deleted COutput class.
-------------------------------------------------------------------------

------------------------- Exit Success (SU2_CFD) ------------------------


-------------------------------------------------------------------------
|    ___ _   _ ___                                                      |
|   / __| | | |_  )   Release 8.0.0 "Harrier"                           |
|   \__ \ |_| |/ /                                                      |
|   |___/\___//___|   Suite (Solution Exporting Code)                   |
|                                                                       |
-------------------------------------------------------------------------
| SU2 Project Website: https://su2code.github.io                        |
|                                                                       |
| The SU2 Project is maintained by the SU2 Foundation                   |
| (http://su2foundation.org)                                            |
-------------------------------------------------------------------------
| Copyright 2012-2023, SU2 Contributors                                 |
|                                                                       |
| SU2 is free software; you can redistribute it and/or                  |
| modify it under the terms of the GNU Lesser General Public            |
| License as published by the Free Software Foundation; either          |
| version 2.1 of the License, or (at your option) any later version.    |
|                                                                       |
| SU2 is distributed in the hope that it will be useful,                |
| but WITHOUT ANY WARRANTY; without even the implied warranty of        |
| MERCHANTABILITY or FITNESS FOR A PARTICULAR PURPOSE. See the GNU      |
| Lesser General Public License for more details.                       |
|                                                                       |
| You should have received a copy of the GNU Lesser General Public      |
| License along with SU2. If not, see <http://www.gnu.org/licenses/>.   |
-------------------------------------------------------------------------

----------------- Physical Case Definition ( Zone 0 ) -------------------
Input mesh file name: mesh_RAE2822_turb_deform.su2

-------------------- Output Information ( Zone 0 ) ----------------------
The tabular file format is CSV (.csv).
Flow variables file name: flow.

------------- Config File Boundary Information ( Zone 0 ) ---------------
+-----------------------------------------------------------------------+
|                        Marker Type|                        Marker Name|
+-----------------------------------------------------------------------+
|                          Far-field|                           FARFIELD|
+-----------------------------------------------------------------------+
|                     Heat flux wall|                            AIRFOIL|
+-----------------------------------------------------------------------+
Two dimensional problem.
13937 grid points before partitioning.
22842 volume elements before partitioning.
2 surface markers.
192 boundary elements in index 0 (Marker = AIRFOIL).
40 boundary elements in index 1 (Marker = FARFIELD).
Executing the partitioning functions.
Building the graph adjacency structure.
Calling ParMETIS... graph partitioning complete (831 edge cuts).
Distributing ParMETIS coloring.
Rebalancing vertices.
Rebalancing volume element connectivity.
Rebalancing markers and surface elements.
14875 vertices including ghost points. 
23674 interior elements including halo cells. 
18780 triangles.
4894 quadrilaterals.
Establishing MPI communication patterns.
Identify vertices.
Storing a mapping from global to local point index.

------------------------- Solution Postprocessing -----------------------
Reading and storing the solution from restart_flow.
Volume output fields: COORDINATES, SOLUTION
  Info: Ignoring the following screen output fields:
  RMS_DENSITY, RMS_NU_TILDE, LIFT, DRAG
Screen output fields: INNER_ITER
  Info: Ignoring the following history output groups:
  RMS_RES, AERO_COEFF
History output group(s): ITER
Warning: No (valid) fields chosen for convergence monitoring. Convergence monitoring inactive.
Warning: No (valid) fields chosen for time convergence monitoring. Time convergence monitoring inactive.
|Paraview                           |flow.vtu                           |
|Paraview surface                   |surface_flow.vtu                   |
|CSV file                           |surface_flow.csv                   |

------------------------- Finalize Solver -------------------------
Deleted CGeometry container.
Deleted CSolver class.
Deleted CConfig container.
Deleted COutput class.

Completed in 0.020510 seconds on 6 cores.

------------------------- Exit Success (SU2_SOL) ------------------------

