
-------------------------------------------------------------------------
|    ___ _   _ ___                                                      |
|   / __| | | |_  )   Release 8.0.0 "Harrier"                           |
|   \__ \ |_| |/ /                                                      |
|   |___/\___//___|   Suite (Computational Fluid Dynamics Code)         |
|                                                                       |
-------------------------------------------------------------------------
| SU2 Project Website: https://su2code.github.io                        |
|                                                                       |
| The SU2 Project is maintained by the SU2 Foundation                   |
| (http://su2foundation.org)                                            |
-------------------------------------------------------------------------
| Copyright 2012-2023, SU2 Contributors                                 |
|                                                                       |
| SU2 is free software; you can redistribute it and/or                  |
| modify it under the terms of the GNU Lesser General Public            |
| License as published by the Free Software Foundation; either          |
| version 2.1 of the License, or (at your option) any later version.    |
|                                                                       |
| SU2 is distributed in the hope that it will be useful,                |
| but WITHOUT ANY WARRANTY; without even the implied warranty of        |
| MERCHANTABILITY or FITNESS FOR A PARTICULAR PURPOSE. See the GNU      |
| Lesser General Public License for more details.                       |
|                                                                       |
| You should have received a copy of the GNU Lesser General Public      |
| License along with SU2. If not, see <http://www.gnu.org/licenses/>.   |
-------------------------------------------------------------------------

Parsing config file for zone 0

----------------- Physical Case Definition ( Zone 0 ) -------------------
Compressible RANS equations.
Turbulence model: Spalart-Allmaras-noft2
Hybrid RANS/LES: No Hybrid RANS/LES
Mach number: 0.734.
Angle of attack (AoA): 2.31 deg, and angle of sideslip (AoS): 0 deg.
Reynolds number: 6.5e+06. Reference length 1.
Fixed CL mode, target value: 0.824.
Reading and writing binary SU2 native restart files.
Read flow solution from: solution_flow.dat.
Dimensional simulation.
The reference area is 1 m^2.
The semi-span will be computed using the max y(3D) value.
The reference length is 1 m.
Reference origin for moment evaluation is (0.25, 0, 0).
Surface(s) where the force coefficients are evaluated: AIRFOIL.

Surface(s) plotted in the output file: AIRFOIL.
Surface(s) affected by the design variables: AIRFOIL.
Input mesh file name: mesh_RAE2822_turb_deform.su2

--------------- Space Numerical Integration ( Zone 0 ) ------------------
Jameson-Schmidt-Turkel scheme (2nd order in space) for the flow inviscid terms.
JST viscous coefficients (2nd & 4th): 0.5, 0.02.
The method includes a grid stretching correction (p = 0.3).
Scalar upwind solver for the turbulence model.
First order integration in space.
Average of gradients with correction (viscous flow terms).
Average of gradients with correction (viscous turbulence terms).
Gradient for viscous and source terms: inverse-distance weighted Least-Squares.

--------------- Time Numerical Integration  ( Zone 0 ) ------------------
Local time stepping (steady state simulation).
Euler implicit method for the flow equations.
FGMRES is used for solving the linear system.
Using a ILU(0) preconditioning.
Convergence criteria of the linear solver: 1e-06.
Max number of linear iterations: 10.
No CFL adaptation.
Courant-Friedrichs-Lewy number:       10
Euler implicit time integration for the turbulence model.

------------------ Convergence Criteria  ( Zone 0 ) ---------------------
Maximum number of solver subiterations: 5500.
Begin convergence monitoring at iteration 10.
Residual minimum value: 1e-12.
Cauchy series min. value: 1e-06.
Number of Cauchy elements: 100.
Begin windowed time average at iteration 0.

-------------------- Output Information ( Zone 0 ) ----------------------
File writing frequency: 
+------------------------------------+
|                     File| Frequency|
+------------------------------------+
|                  RESTART|     10000|
|                 PARAVIEW|     10000|
|         SURFACE_PARAVIEW|     10000|
|              SURFACE_CSV|     10000|
+------------------------------------+
Writing the convergence history file every 1 inner iterations.
Writing the screen convergence history every 1 inner iterations.
The tabular file format is CSV (.csv).
Convergence history file name: history_direct.
Forces breakdown file name: forces_breakdown.dat.
Surface file name: surface_flow.
Volume file name: flow.
Restart file name: restart_flow.dat.

------------- Config File Boundary Information ( Zone 0 ) ---------------
+-----------------------------------------------------------------------+
|                        Marker Type|                        Marker Name|
+-----------------------------------------------------------------------+
|                          Far-field|                           FARFIELD|
+-----------------------------------------------------------------------+
|                     Heat flux wall|                            AIRFOIL|
+-----------------------------------------------------------------------+

-------------------- Output Preprocessing ( Zone 0 ) --------------------

WARNING: SURFACE_PRESSURE_DROP can only be computed for at least 2 surfaces (outlet, inlet, ...)

Screen output fields: INNER_ITER, RMS_DENSITY, RMS_NU_TILDE, LIFT, DRAG
History output group(s): ITER, RMS_RES, AERO_COEFF
Convergence field(s): RMS_DENSITY
Warning: No (valid) fields chosen for time convergence monitoring. Time convergence monitoring inactive.
Volume output fields: COORDINATES, SOLUTION, PRIMITIVE

------------------- Geometry Preprocessing ( Zone 0 ) -------------------
Two dimensional problem.
13937 grid points before partitioning.
22842 volume elements before partitioning.
2 surface markers.
192 boundary elements in index 0 (Marker = AIRFOIL).
40 boundary elements in index 1 (Marker = FARFIELD).
Executing the partitioning functions.
Building the graph adjacency structure.
Calling ParMETIS... graph partitioning complete (831 edge cuts).
Distributing ParMETIS coloring.
Rebalancing vertices.
Rebalancing volume element connectivity.
Rebalancing markers and surface elements.
14875 vertices including ghost points. 
23674 interior elements including halo cells. 
18780 triangles.
4894 quadrilaterals.
Establishing MPI communication patterns.
Setting point connectivity.
Renumbering points (Reverse Cuthill McKee Ordering).
Recomputing point connectivity.
Setting element connectivity.
Checking the numerical grid orientation.
All volume elements are correctly orientend.
All surface elements are correctly orientend.
Identifying edges and vertices.
Setting the control volume structure.
Area of the computational grid: 32209.9.
Searching for the closest normal neighbors to the surfaces.
Storing a mapping from global to local point index.
Compute the surface curvature.
Max K: 156.257. Mean K: 7.19241. Standard deviation K: 21.1577.
Checking for periodicity.
Computing mesh quality statistics for the dual control volumes.
+--------------------------------------------------------------+
|           Mesh Quality Metric|        Minimum|        Maximum|
+--------------------------------------------------------------+
|    Orthogonality Angle (deg.)|        75.2881|        89.9986|
|     CV Face Area Aspect Ratio|        1.00273|        3358.31|
|           CV Sub-Volume Ratio|        1.00055|        1211.38|
+--------------------------------------------------------------+
Finding max control volume width.
Communicating number of neighbors.
Wetted area = 2.02391 m.
Area projection in the x-plane = 0.123491 m, y-plane = 0.995873 m.
Max. coordinate in the x-direction = 1 m, y-direction = 0.0628638 m.
Min. coordinate in the x-direction = 0 m, y-direction = -0.0594984 m.
Computing wall distances.

-------------------- Solver Preprocessing ( Zone 0 ) --------------------
WARNING: AoA in the solution file (2.79487 deg.) +
         AoA offset in mesh file (0 deg.) = 2.79487 deg.
WARNING: SU2 will use the dCD/dCL provided in the direct solution file: 0.0683489.
WARNING: SU2 will use the dCMz/dCL provided in the direct solution file: -0.00400945.
Viscous flow: Computing pressure using the ideal gas law
based on the free-stream temperature and a density computed
from the Reynolds number.
Force coefficients computed using free-stream values.

-- Models:
+------------------------------------------------------------------------------+
|          Viscosity Model|        Conductivity Model|              Fluid Model|
+------------------------------------------------------------------------------+
|               SUTHERLAND|          CONSTANT_PRANDTL|             STANDARD_AIR|
+------------------------------------------------------------------------------+
-- Fluid properties:
+------------------------------------------------------------------------------+
|                  Name|    Dim. value|    Ref. value|      Unit|Non-dim. value|
+------------------------------------------------------------------------------+
|        Ref. Viscosity|     1.716e-05|             1|   N.s/m^2|     1.716e-05|
|      Sutherland Temp.|        273.15|             1|         K|        273.15|
|     Sutherland Const.|         110.4|             1|         K|         110.4|
+------------------------------------------------------------------------------+
|        Prandtl (Lam.)|             -|             -|         -|          0.71|
|       Prandtl (Turb.)|             -|             -|         -|           0.9|
+------------------------------------------------------------------------------+
|          Gas Constant|       287.058|             1|  N.m/kg.K|       287.058|
|      Spec. Heat Ratio|             -|             -|         -|           1.4|
+------------------------------------------------------------------------------+
-- Initial and free-stream conditions:
+------------------------------------------------------------------------------+
|                  Name|    Dim. value|    Ref. value|      Unit|Non-dim. value|
+------------------------------------------------------------------------------+
|       Static Pressure|         38515|             1|        Pa|         38515|
|               Density|      0.465631|             1|    kg/m^3|      0.465631|
|           Temperature|        288.15|             1|         K|        288.15|
|          Total Energy|        237984|             1|   m^2/s^2|        237984|
|            Velocity-X|       249.481|             1|       m/s|       249.481|
|            Velocity-Y|       12.1792|             1|       m/s|       12.1792|
|    Velocity Magnitude|       249.778|             1|       m/s|       249.778|
+------------------------------------------------------------------------------+
|             Viscosity|    1.7893e-05|             1|   N.s/m^2|    1.7893e-05|
|          Conductivity|             -|             1|   W/m^2.K|             -|
|     Turb. Kin. Energy|       233.959|             1|   m^2/s^2|       233.959|
|     Spec. Dissipation|        608834|             1|       1/s|        608834|
+------------------------------------------------------------------------------+
|           Mach Number|             -|             -|         -|         0.734|
|       Reynolds Number|             -|             -|         -|       6.5e+06|
+------------------------------------------------------------------------------+
Initialize Jacobian structure (Navier-Stokes). MG level: 0.
Initialize Jacobian structure (SA model).

------------------- Numerics Preprocessing ( Zone 0 ) -------------------

----------------- Integration Preprocessing ( Zone 0 ) ------------------

------------------- Iteration Preprocessing ( Zone 0 ) ------------------
Euler/Navier-Stokes/RANS fluid iteration.

------------------------------ Begin Solver -----------------------------

Simulation Run using the Single-zone Driver
WARNING: SU2 was not compiled for an AVX-capable architecture. Performance could be better,
         see https://su2code.github.io/docs_v7/Build-SU2-Linux-MacOS/#compiler-optimizations
+----------------------------------------------------------------+
|  Inner_Iter|    rms[Rho]|     rms[nu]|          CL|          CD|
+----------------------------------------------------------------+
|           0|   -3.628016|   -4.858471|    0.824117|    0.013619|
|           1|   -3.674806|   -4.950015|    0.823905|    0.013497|
|           2|   -3.720330|   -5.052270|    0.823532|    0.013478|
|           3|   -3.746303|   -5.157698|    0.823143|    0.013521|
|           4|   -3.755889|   -5.261160|    0.822826|    0.013582|
|           5|   -3.755467|   -5.357915|    0.822601|    0.013632|
|           6|   -3.750243|   -5.449468|    0.822447|    0.013657|
|           7|   -3.743779|   -5.504779|    0.822336|    0.013655|
|           8|   -3.737654|   -5.513317|    0.822255|    0.013633|
|           9|   -3.731962|   -5.490688|    0.822206|    0.013600|
|          10|   -3.726164|   -5.460624|    0.822196|    0.013565|
|          11|   -3.719611|   -5.433431|    0.822233|    0.013533|
|          12|   -3.711731|   -5.410077|    0.822318|    0.013508|
|          13|   -3.702087|   -5.388843|    0.822447|    0.013494|
|          14|   -3.690466|   -5.367968|    0.822610|    0.013493|
|          15|   -3.676999|   -5.346594|    0.822797|    0.013505|
|          16|   -3.662200|   -5.324377|    0.822998|    0.013531|
|          17|   -3.646844|   -5.300936|    0.823200|    0.013571|
|          18|   -3.631750|   -5.276161|    0.823395|    0.013623|
|          19|   -3.617571|   -5.250290|    0.823572|    0.013685|
|          20|   -3.604675|   -5.223764|    0.823721|    0.013755|
|          21|   -3.593144|   -5.197367|    0.823835|    0.013830|
|          22|   -3.582866|   -5.172005|    0.823906|    0.013905|
|          23|   -3.573640|   -5.148541|    0.823928|    0.013978|
|          24|   -3.565282|   -5.127735|    0.823896|    0.014043|
|          25|   -3.557683|   -5.110230|    0.823809|    0.014100|
|          26|   -3.550822|   -5.096600|    0.823667|    0.014144|
|          27|   -3.544732|   -5.086730|    0.823472|    0.014174|
|          28|   -3.539431|   -5.080724|    0.823230|    0.014188|
|          29|   -3.534943|   -5.078495|    0.822947|    0.014188|
|          30|   -3.531238|   -5.079858|    0.822633|    0.014173|
|          31|   -3.528196|   -5.084569|    0.822298|    0.014145|
|          32|   -3.525688|   -5.092324|    0.821952|    0.014105|
|          33|   -3.523559|   -5.102727|    0.821607|    0.014058|
|          34|   -3.521668|   -5.115340|    0.821273|    0.014004|
|          35|   -3.519843|   -5.129538|    0.820959|    0.013947|
|          36|   -3.518022|   -5.144829|    0.820674|    0.013891|
|          37|   -3.516175|   -5.160056|    0.820423|    0.013836|
|          38|   -3.514324|   -5.174196|    0.820209|    0.013785|
|          39|   -3.512510|   -5.186191|    0.820036|    0.013740|
|          40|   -3.510809|   -5.195118|    0.819902|    0.013701|
|          41|   -3.509308|   -5.200317|    0.819806|    0.013670|
|          42|   -3.508106|   -5.201539|    0.819742|    0.013645|
|          43|   -3.507282|   -5.199045|    0.819707|    0.013627|
|          44|   -3.506906|   -5.193407|    0.819695|    0.013615|
|          45|   -3.507016|   -5.185347|    0.819699|    0.013607|
|          46|   -3.507623|   -5.175553|    0.819712|    0.013602|
|          47|   -3.508722|   -5.164658|    0.819729|    0.013599|
|          48|   -3.510286|   -5.153110|    0.819743|    0.013596|
|          49|   -3.512273|   -5.141222|    0.819751|    0.013592|
|          50|   -3.514645|   -5.129229|    0.819748|    0.013586|
|          51|   -3.517362|   -5.117338|    0.819731|    0.013577|
|          52|   -3.520366|   -5.105754|    0.819699|    0.013565|
|          53|   -3.523640|   -5.094694|    0.819652|    0.013548|
|          54|   -3.527174|   -5.084356|    0.819589|    0.013527|
|          55|   -3.530960|   -5.074988|    0.819513|    0.013503|
|          56|   -3.534976|   -5.066800|    0.819424|    0.013474|
|          57|   -3.539207|   -5.059940|    0.819325|    0.013443|
|          58|   -3.543650|   -5.054497|    0.819220|    0.013409|
|          59|   -3.548309|   -5.050477|    0.819110|    0.013373|
|          60|   -3.553169|   -5.047807|    0.818998|    0.013336|
|          61|   -3.558225|   -5.046348|    0.818887|    0.013298|
|          62|   -3.563431|   -5.045909|    0.818779|    0.013261|
|          63|   -3.568723|   -5.046266|    0.818676|    0.013224|
|          64|   -3.574128|   -5.047145|    0.818578|    0.013189|
|          65|   -3.579599|   -5.048316|    0.818488|    0.013155|
|          66|   -3.585128|   -5.049566|    0.818405|    0.013123|
|          67|   -3.590696|   -5.050713|    0.818329|    0.013093|
|          68|   -3.596324|   -5.051629|    0.818260|    0.013065|
|          69|   -3.602027|   -5.052225|    0.818196|    0.013039|
|          70|   -3.607811|   -5.052463|    0.818137|    0.013015|
|          71|   -3.613685|   -5.052367|    0.818081|    0.012993|
|          72|   -3.619663|   -5.051963|    0.818027|    0.012971|
|          73|   -3.625736|   -5.051312|    0.817973|    0.012951|
|          74|   -3.631875|   -5.050463|    0.817919|    0.012932|
|          75|   -3.638044|   -5.049488|    0.817863|    0.012914|
|          76|   -3.644202|   -5.048436|    0.817805|    0.012895|
|          77|   -3.650301|   -5.047346|    0.817742|    0.012877|
|          78|   -3.656291|   -5.046241|    0.817676|    0.012859|
|          79|   -3.662155|   -5.045166|    0.817605|    0.012841|
|          80|   -3.667881|   -5.044150|    0.817530|    0.012823|
|          81|   -3.673461|   -5.043216|    0.817450|    0.012804|
|          82|   -3.678900|   -5.042361|    0.817367|    0.012785|
|          83|   -3.684206|   -5.041597|    0.817279|    0.012766|
|          84|   -3.689383|   -5.040911|    0.817189|    0.012746|
|          85|   -3.694422|   -5.040302|    0.817097|    0.012726|
|          86|   -3.699329|   -5.039777|    0.817004|    0.012706|
|          87|   -3.704083|   -5.039325|    0.816910|    0.012686|
|          88|   -3.708652|   -5.038941|    0.816817|    0.012666|
|          89|   -3.713006|   -5.038614|    0.816725|    0.012647|
|          90|   -3.717113|   -5.038339|    0.816635|    0.012627|
|          91|   -3.720941|   -5.038126|    0.816548|    0.012609|
|          92|   -3.724466|   -5.037979|    0.816464|    0.012591|
|          93|   -3.727673|   -5.037898|    0.816383|    0.012573|
|          94|   -3.730563|   -5.037890|    0.816306|    0.012557|
|          95|   -3.733139|   -5.037962|    0.816233|    0.012542|
|          96|   -3.735411|   -5.038120|    0.816164|    0.012529|
|          97|   -3.737394|   -5.038374|    0.816099|    0.012516|
|          98|   -3.739102|   -5.038732|    0.816038|    0.012506|
|          99|   -3.740554|   -5.039202|    0.815981|    0.012497|
|         100|   -3.741712|   -5.039790|    0.815926|    0.012490|
|         101|   -3.742641|   -5.040500|    0.815864|    0.013059|
+-----------------------------------------------------------------------+
|Fixed CL Mode                           |Value                         |
+-----------------------------------------------------------------------+
|Current CL                              |0.815864                      |
|Target CL                               |0.824                         |
|Previous AOA                            |2.79487                       |
|Changed AoA by                          |0.0403711                     |
+-----------------------------------------------------------------------+
+----------------------------------------------------------------+
|  Inner_Iter|    rms[Rho]|     rms[nu]|          CL|          CD|
+----------------------------------------------------------------+
|         102|   -1.587282|   -5.030725|    0.815814|    0.013055|
|         103|   -1.971807|   -5.037073|    0.815764|    0.013053|
|         104|   -2.216589|   -5.039707|    0.815715|    0.013053|
|         105|   -2.296359|   -5.041736|    0.815666|    0.013054|
|         106|   -2.350697|   -5.043624|    0.815615|    0.013056|
|         107|   -2.421015|   -5.045512|    0.815563|    0.013060|
|         108|   -2.507961|   -5.047446|    0.815509|    0.013065|
|         109|   -2.598748|   -5.049409|    0.815452|    0.013071|
|         110|   -2.676591|   -5.051403|    0.815391|    0.013077|
|         111|   -2.732911|   -5.053422|    0.815326|    0.013084|
|         112|   -2.769462|   -5.055475|    0.815258|    0.013091|
|         113|   -2.790338|   -5.057551|    0.815186|    0.013098|
|         114|   -2.799569|   -5.059657|    0.815109|    0.013104|
|         115|   -2.803085|   -5.061799|    0.815029|    0.013110|
|         116|   -2.807504|   -5.063970|    0.814946|    0.013116|
|         117|   -2.817233|   -5.066157|    0.814859|    0.013121|
|         118|   -2.833277|   -5.068339|    0.814770|    0.013124|
|         119|   -2.853803|   -5.070500|    0.814678|    0.013127|
|         120|   -2.875618|   -5.072622|    0.814585|    0.013130|
|         121|   -2.896008|   -5.074694|    0.814491|    0.013131|
|         122|   -2.914060|   -5.076698|    0.814397|    0.013131|
|         123|   -2.930604|   -5.078619|    0.814303|    0.013131|
|         124|   -2.947056|   -5.080440|    0.814209|    0.013130|
|         125|   -2.964299|   -5.082151|    0.814118|    0.013128|
|         126|   -2.982300|   -5.083744|    0.814029|    0.013126|
|         127|   -3.000344|   -5.085218|    0.813943|    0.013124|
|         128|   -3.017461|   -5.086575|    0.813860|    0.013122|
|         129|   -3.032772|   -5.087818|    0.813781|    0.013120|
|         130|   -3.045671|   -5.088953|    0.813707|    0.013119|
|         131|   -3.055941|   -5.089990|    0.813637|    0.013118|
|         132|   -3.063835|   -5.090939|    0.813572|    0.013118|
|         133|   -3.070065|   -5.091815|    0.813513|    0.013118|
|         134|   -3.075650|   -5.092625|    0.813459|    0.013119|
|         135|   -3.081665|   -5.093380|    0.813411|    0.013122|
|         136|   -3.088999|   -5.094086|    0.813369|    0.013125|
|         137|   -3.098199|   -5.094751|    0.813333|    0.013129|
|         138|   -3.109413|   -5.095385|    0.813304|    0.013134|
|         139|   -3.122384|   -5.095998|    0.813280|    0.013140|
|         140|   -3.136488|   -5.096598|    0.813263|    0.013147|
|         141|   -3.150825|   -5.097195|    0.813252|    0.013155|
|         142|   -3.164378|   -5.097799|    0.813249|    0.013164|
|         143|   -3.176267|   -5.098416|    0.813252|    0.013173|
|         144|   -3.186008|   -5.099047|    0.813262|    0.013183|
|         145|   -3.193667|   -5.099705|    0.813280|    0.013193|
|         146|   -3.199824|   -5.100404|    0.813307|    0.013204|
|         147|   -3.205368|   -5.101157|    0.813343|    0.013215|
|         148|   -3.211219|   -5.101969|    0.813388|    0.013227|
|         149|   -3.218109|   -5.102841|    0.813444|    0.013238|
|         150|   -3.226465|   -5.103783|    0.813511|    0.013250|
|         151|   -3.236378|   -5.104798|    0.813591|    0.013261|
|         152|   -3.247650|   -5.105894|    0.813683|    0.013273|
|         153|   -3.259877|   -5.107073|    0.813788|    0.013285|
|         154|   -3.272554|   -5.108343|    0.813907|    0.013297|
|         155|   -3.285192|   -5.109704|    0.814041|    0.013309|
|         156|   -3.297413|   -5.111172|    0.814190|    0.013321|
|         157|   -3.309017|   -5.112757|    0.814354|    0.013333|
|         158|   -3.319994|   -5.114476|    0.814533|    0.013346|
|         159|   -3.330491|   -5.116338|    0.814727|    0.013358|
|         160|   -3.340746|   -5.118352|    0.814935|    0.013371|
|         161|   -3.351022|   -5.120533|    0.815157|    0.013383|
|         162|   -3.361534|   -5.122887|    0.815392|    0.013396|
|         163|   -3.372431|   -5.125422|    0.815638|    0.013409|
|         164|   -3.383785|   -5.128147|    0.815895|    0.013422|
|         165|   -3.395604|   -5.131083|    0.816162|    0.013435|
|         166|   -3.407843|   -5.134246|    0.816435|    0.013448|
|         167|   -3.420439|   -5.137640|    0.816714|    0.013462|
|         168|   -3.433332|   -5.141263|    0.816996|    0.013475|
|         169|   -3.446472|   -5.145122|    0.817279|    0.013488|
|         170|   -3.459822|   -5.149222|    0.817562|    0.013500|
|         171|   -3.473353|   -5.153568|    0.817842|    0.013513|
|         172|   -3.487036|   -5.158182|    0.818116|    0.013524|
|         173|   -3.500833|   -5.163042|    0.818382|    0.013536|
|         174|   -3.514691|   -5.168150|    0.818639|    0.013547|
|         175|   -3.528534|   -5.173545|    0.818883|    0.013556|
|         176|   -3.542271|   -5.179202|    0.819114|    0.013566|
|         177|   -3.555789|   -5.185109|    0.819329|    0.013574|
|         178|   -3.568967|   -5.191242|    0.819526|    0.013581|
|         179|   -3.581681|   -5.197595|    0.819704|    0.013587|
|         180|   -3.593808|   -5.204145|    0.819863|    0.013592|
|         181|   -3.605236|   -5.210885|    0.820000|    0.013596|
|         182|   -3.615870|   -5.217853|    0.820115|    0.013599|
|         183|   -3.625636|   -5.225022|    0.820208|    0.013601|
|         184|   -3.634487|   -5.232383|    0.820279|    0.013601|
|         185|   -3.642405|   -5.239920|    0.820326|    0.013600|
|         186|   -3.649405|   -5.247634|    0.820351|    0.013598|
|         187|   -3.655531|   -5.255545|    0.820355|    0.013595|
|         188|   -3.660855|   -5.263675|    0.820336|    0.013591|
|         189|   -3.665474|   -5.271982|    0.820297|    0.013586|
|         190|   -3.669502|   -5.280507|    0.820239|    0.013580|
|         191|   -3.673063|   -5.289238|    0.820161|    0.013573|
|         192|   -3.676287|   -5.298184|    0.820067|    0.013565|
|         193|   -3.679302|   -5.307364|    0.819956|    0.013556|
|         194|   -3.682231|   -5.316806|    0.819830|    0.013547|
|         195|   -3.685182|   -5.326530|    0.819691|    0.013537|
|         196|   -3.688253|   -5.336562|    0.819540|    0.013526|
|         197|   -3.691527|   -5.346924|    0.819378|    0.013515|
|         198|   -3.695070|   -5.357626|    0.819208|    0.013504|
|         199|   -3.698933|   -5.368685|    0.819029|    0.013492|
|         200|   -3.703149|   -5.380118|    0.818845|    0.013480|
|         201|   -3.707739|   -5.391936|    0.818649|    0.013836|
+-----------------------------------------------------------------------+
|Fixed CL Mode                           |Value                         |
+-----------------------------------------------------------------------+
|Current CL                              |0.818649                      |
|Target CL                               |0.824                         |
|Previous AOA                            |2.83524                       |
|Changed AoA by                          |0.0257761                     |
+-----------------------------------------------------------------------+
+----------------------------------------------------------------+
|  Inner_Iter|    rms[Rho]|     rms[nu]|          CL|          CD|
+----------------------------------------------------------------+
|         202|   -1.782066|   -5.381081|    0.818456|    0.013824|
|         203|   -2.165385|   -5.404360|    0.818261|    0.013812|
|         204|   -2.406222|   -5.420422|    0.818064|    0.013800|
|         205|   -2.483566|   -5.435458|    0.817868|    0.013788|
|         206|   -2.536947|   -5.450512|    0.817673|    0.013777|
|         207|   -2.606453|   -5.465693|    0.817480|    0.013765|
|         208|   -2.692544|   -5.481058|    0.817291|    0.013754|
|         209|   -2.783031|   -5.496582|    0.817106|    0.013744|
|         210|   -2.862164|   -5.512232|    0.816926|    0.013734|
|         211|   -2.921698|   -5.527940|    0.816752|    0.013724|
|         212|   -2.962569|   -5.543655|    0.816586|    0.013715|
|         213|   -2.987677|   -5.559333|    0.816426|    0.013706|
|         214|   -3.000122|   -5.574935|    0.816276|    0.013698|
|         215|   -3.005560|   -5.590424|    0.816134|    0.013691|
|         216|   -3.010928|   -5.605755|    0.816001|    0.013685|
|         217|   -3.021125|   -5.620856|    0.815879|    0.013679|
|         218|   -3.037534|   -5.635660|    0.815768|    0.013674|
|         219|   -3.058556|   -5.650120|    0.815667|    0.013669|
|         220|   -3.081142|   -5.664235|    0.815578|    0.013666|
|         221|   -3.102666|   -5.678065|    0.815500|    0.013663|
|         222|   -3.122265|   -5.691539|    0.815434|    0.013661|
|         223|   -3.140778|   -5.704659|    0.815380|    0.013660|
|         224|   -3.159576|   -5.717443|    0.815338|    0.013659|
|         225|   -3.179419|   -5.729760|    0.815309|    0.013660|
|         226|   -3.200050|   -5.741518|    0.815291|    0.013661|
|         227|   -3.220450|   -5.752699|    0.815286|    0.013662|
|         228|   -3.239330|   -5.763298|    0.815293|    0.013665|
|         229|   -3.255570|   -5.773349|    0.815311|    0.013668|
|         230|   -3.268489|   -5.782909|    0.815342|    0.013672|
|         231|   -3.277986|   -5.792002|    0.815384|    0.013676|
|         232|   -3.284578|   -5.800643|    0.815438|    0.013681|
|         233|   -3.289299|   -5.808900|    0.815503|    0.013687|
|         234|   -3.293450|   -5.816817|    0.815579|    0.013693|
|         235|   -3.298283|   -5.824400|    0.815666|    0.013699|
|         236|   -3.304745|   -5.831638|    0.815763|    0.013706|
|         237|   -3.313350|   -5.838486|    0.815869|    0.013714|
|         238|   -3.324144|   -5.844975|    0.815985|    0.013721|
|         239|   -3.336727|   -5.851160|    0.816110|    0.013730|
|         240|   -3.350314|   -5.856934|    0.816243|    0.013738|
|         241|   -3.363841|   -5.862250|    0.816383|    0.013746|
|         242|   -3.376174|   -5.867091|    0.816531|    0.013755|
|         243|   -3.386389|   -5.871503|    0.816686|    0.013764|
|         244|   -3.394054|   -5.875503|    0.816847|    0.013773|
|         245|   -3.399371|   -5.879164|    0.817014|    0.013782|
|         246|   -3.403082|   -5.882516|    0.817186|    0.013791|
|         247|   -3.406208|   -5.885634|    0.817363|    0.013800|
|         248|   -3.409746|   -5.888565|    0.817546|    0.013809|
|         249|   -3.414447|   -5.891371|    0.817732|    0.013818|
|         250|   -3.420716|   -5.894140|    0.817923|    0.013827|
|         251|   -3.428613|   -5.896882|    0.818119|    0.013836|
|         252|   -3.437908|   -5.899646|    0.818318|    0.013844|
|         253|   -3.448188|   -5.902486|    0.818521|    0.013853|
|         254|   -3.458957|   -5.905417|    0.818728|    0.013861|
|         255|   -3.469760|   -5.908437|    0.818939|    0.013869|
|         256|   -3.480262|   -5.911520|    0.819153|    0.013877|
|         257|   -3.490312|   -5.914702|    0.819371|    0.013884|
|         258|   -3.499935|   -5.917908|    0.819592|    0.013892|
|         259|   -3.509297|   -5.921127|    0.819816|    0.013899|
|         260|   -3.518641|   -5.924304|    0.820043|    0.013906|
|         261|   -3.528217|   -5.927384|    0.820273|    0.013912|
|         262|   -3.538233|   -5.930354|    0.820505|    0.013919|
|         263|   -3.548833|   -5.933172|    0.820739|    0.013925|
|         264|   -3.560086|   -5.935779|    0.820975|    0.013931|
|         265|   -3.572005|   -5.938205|    0.821211|    0.013937|
|         266|   -3.584563|   -5.940452|    0.821449|    0.013942|
|         267|   -3.597717|   -5.942564|    0.821686|    0.013947|
|         268|   -3.611423|   -5.944575|    0.821922|    0.013952|
|         269|   -3.625647|   -5.946559|    0.822157|    0.013956|
|         270|   -3.640367|   -5.948592|    0.822390|    0.013961|
|         271|   -3.655566|   -5.950769|    0.822619|    0.013965|
|         272|   -3.671226|   -5.953187|    0.822844|    0.013968|
|         273|   -3.687316|   -5.955885|    0.823064|    0.013972|
|         274|   -3.703783|   -5.959039|    0.823278|    0.013975|
|         275|   -3.720547|   -5.962607|    0.823486|    0.013977|
|         276|   -3.737498|   -5.966574|    0.823685|    0.013980|
|         277|   -3.754491|   -5.970971|    0.823876|    0.013982|
|         278|   -3.771354|   -5.975750|    0.824057|    0.013984|
|         279|   -3.787892|   -5.980833|    0.824228|    0.013985|
|         280|   -3.803890|   -5.986119|    0.824388|    0.013987|
|         281|   -3.819127|   -5.991461|    0.824537|    0.013988|
|         282|   -3.833383|   -5.996673|    0.824673|    0.013988|
|         283|   -3.846455|   -6.001526|    0.824797|    0.013989|
|         284|   -3.858169|   -6.005824|    0.824909|    0.013989|
|         285|   -3.868389|   -6.009360|    0.825007|    0.013989|
|         286|   -3.877035|   -6.011952|    0.825093|    0.013989|
|         287|   -3.884084|   -6.013455|    0.825166|    0.013988|
|         288|   -3.889572|   -6.013776|    0.825226|    0.013988|
|         289|   -3.893591|   -6.012929|    0.825273|    0.013987|
|         290|   -3.896278|   -6.010979|    0.825307|    0.013985|
|         291|   -3.897804|   -6.008052|    0.825330|    0.013984|
|         292|   -3.898357|   -6.004320|    0.825340|    0.013982|
|         293|   -3.898134|   -5.999997|    0.825340|    0.013981|
|         294|   -3.897326|   -5.995345|    0.825329|    0.013978|
|         295|   -3.896109|   -5.990623|    0.825308|    0.013976|
|         296|   -3.894644|   -5.986093|    0.825277|    0.013973|
|         297|   -3.893067|   -5.981994|    0.825238|    0.013971|
|         298|   -3.891495|   -5.978536|    0.825190|    0.013967|
|         299|   -3.890024|   -5.975895|    0.825135|    0.013964|
|         300|   -3.888730|   -5.974204|    0.825073|    0.013960|
|         301|   -3.887672|   -5.973567|    0.825007|    0.013878|
+-----------------------------------------------------------------------+
|Fixed CL Mode                           |Value                         |
+-----------------------------------------------------------------------+
|Current CL                              |0.825007                      |
|Target CL                               |0.824                         |
|Previous AOA                            |2.86101                       |
|Changed AoA by                          |-0.00536669                   |
+-----------------------------------------------------------------------+
+----------------------------------------------------------------+
|  Inner_Iter|    rms[Rho]|     rms[nu]|          CL|          CD|
+----------------------------------------------------------------+
|         302|   -2.463450|   -5.961270|    0.824935|    0.013874|
|         303|   -2.850570|   -5.969711|    0.824858|    0.013869|
|         304|   -3.106011|   -5.974312|    0.824777|    0.013863|
|         305|   -3.192625|   -5.979046|    0.824695|    0.013857|
|         306|   -3.248083|   -5.984478|    0.824610|    0.013851|
|         307|   -3.317018|   -5.990638|    0.824524|    0.013844|
|         308|   -3.399401|   -5.997400|    0.824438|    0.013837|
|         309|   -3.479357|   -6.004559|    0.824353|    0.013830|
|         310|   -3.538430|   -6.011865|    0.824269|    0.013822|
|         311|   -3.571726|   -6.019014|    0.824187|    0.013814|
|         312|   -3.586829|   -6.025682|    0.824109|    0.013806|
|         313|   -3.591662|   -6.031562|    0.824034|    0.013797|
|         314|   -3.591433|   -6.036365|    0.823964|    0.013789|
|         315|   -3.590635|   -6.039790|    0.823898|    0.013780|
|         316|   -3.593119|   -6.041645|    0.823839|    0.013770|
|         317|   -3.600946|   -6.041820|    0.823786|    0.013761|
|         318|   -3.613895|   -6.040305|    0.823740|    0.013752|
|         319|   -3.629915|   -6.037190|    0.823701|    0.013743|
|         320|   -3.646240|   -6.032725|    0.823669|    0.013734|
|         321|   -3.660745|   -6.027162|    0.823646|    0.013725|
|         322|   -3.672810|   -6.020707|    0.823631|    0.013716|
|         323|   -3.683164|   -6.013687|    0.823625|    0.013708|
|         324|   -3.693032|   -6.006387|    0.823627|    0.013700|
|         325|   -3.703359|   -5.999095|    0.823638|    0.013692|
|         326|   -3.714540|   -5.992055|    0.823657|    0.013684|
|         327|   -3.726523|   -5.985462|    0.823685|    0.013677|
|         328|   -3.739015|   -5.979482|    0.823721|    0.013671|
|         329|   -3.751615|   -5.974240|    0.823765|    0.013665|
|         330|   -3.763891|   -5.969823|    0.823816|    0.013659|
|         331|   -3.775456|   -5.966299|    0.823874|    0.013653|
|         332|   -3.786077|   -5.963678|    0.823939|    0.013649|
|         333|   -3.795765|   -5.961957|    0.824010|    0.013644|
|         334|   -3.804792|   -5.961160|    0.824087|    0.013640|
|         335|   -3.813618|   -5.961205|    0.824168|    0.013636|
|         336|   -3.822748|   -5.962070|    0.824253|    0.013633|
|         337|   -3.832603|   -5.963694|    0.824342|    0.013630|
|         338|   -3.843425|   -5.965976|    0.824434|    0.013628|
|         339|   -3.855230|   -5.968834|    0.824528|    0.013625|
|         340|   -3.867799|   -5.972182|    0.824623|    0.013623|
|         341|   -3.880719|   -5.975944|    0.824718|    0.013621|
|         342|   -3.893456|   -5.979990|    0.824814|    0.013620|
|         343|   -3.905483|   -5.984227|    0.824909|    0.013618|
|         344|   -3.916411|   -5.988580|    0.825002|    0.013616|
|         345|   -3.926086|   -5.992942|    0.825093|    0.013615|
|         346|   -3.934609|   -5.997250|    0.825182|    0.013613|
|         347|   -3.942274|   -6.001439|    0.825267|    0.013611|
|         348|   -3.949448|   -6.005472|    0.825349|    0.013609|
|         349|   -3.956439|   -6.009349|    0.825426|    0.013607|
|         350|   -3.963428|   -6.013079|    0.825499|    0.013604|
|         351|   -3.970421|   -6.016678|    0.825567|    0.013601|
|         352|   -3.977284|   -6.020174|    0.825630|    0.013598|
|         353|   -3.983783|   -6.023602|    0.825688|    0.013595|
|         354|   -3.989662|   -6.027011|    0.825740|    0.013592|
|         355|   -3.994709|   -6.030494|    0.825786|    0.013588|
|         356|   -3.998809|   -6.034035|    0.825827|    0.013583|
|         357|   -4.001961|   -6.037675|    0.825863|    0.013579|
|         358|   -4.004268|   -6.041439|    0.825893|    0.013574|
|         359|   -4.005906|   -6.045448|    0.825919|    0.013568|
|         360|   -4.007086|   -6.049614|    0.825940|    0.013563|
|         361|   -4.008018|   -6.053936|    0.825956|    0.013557|
|         362|   -4.008884|   -6.058388|    0.825968|    0.013551|
|         363|   -4.009825|   -6.062927|    0.825977|    0.013545|
|         364|   -4.010946|   -6.067493|    0.825983|    0.013538|
|         365|   -4.012316|   -6.072006|    0.825987|    0.013532|
|         366|   -4.013985|   -6.076390|    0.825988|    0.013525|
|         367|   -4.015989|   -6.080566|    0.825988|    0.013519|
|         368|   -4.018353|   -6.084461|    0.825987|    0.013512|
|         369|   -4.021101|   -6.088011|    0.825986|    0.013506|
|         370|   -4.024249|   -6.091164|    0.825985|    0.013500|
|         371|   -4.027811|   -6.093887|    0.825985|    0.013494|
|         372|   -4.031793|   -6.096170|    0.825986|    0.013489|
|         373|   -4.036190|   -6.098021|    0.825989|    0.013483|
|         374|   -4.040991|   -6.099474|    0.825995|    0.013478|
|         375|   -4.046173|   -6.100579|    0.826003|    0.013474|
|         376|   -4.051705|   -6.101407|    0.826014|    0.013470|
|         377|   -4.057550|   -6.102032|    0.826028|    0.013466|
|         378|   -4.063664|   -6.102529|    0.826046|    0.013463|
|         379|   -4.069996|   -6.103008|    0.826067|    0.013461|
|         380|   -4.076489|   -6.103570|    0.826093|    0.013459|
|         381|   -4.083082|   -6.104310|    0.826122|    0.013458|
|         382|   -4.089710|   -6.105312|    0.826155|    0.013457|
|         383|   -4.096301|   -6.106654|    0.826192|    0.013457|
|         384|   -4.102782|   -6.108400|    0.826232|    0.013457|
|         385|   -4.109077|   -6.110597|    0.826276|    0.013458|
|         386|   -4.115111|   -6.113286|    0.826323|    0.013460|
|         387|   -4.120811|   -6.116493|    0.826373|    0.013462|
|         388|   -4.126108|   -6.120227|    0.826426|    0.013464|
|         389|   -4.130942|   -6.124473|    0.826482|    0.013467|
|         390|   -4.135261|   -6.129305|    0.826539|    0.013471|
|         391|   -4.139028|   -6.134749|    0.826599|    0.013474|
|         392|   -4.142218|   -6.140522|    0.826660|    0.013479|
|         393|   -4.144821|   -6.146626|    0.826722|    0.013483|
|         394|   -4.146842|   -6.153018|    0.826785|    0.013488|
|         395|   -4.148302|   -6.159648|    0.826848|    0.013493|
|         396|   -4.149232|   -6.166437|    0.826912|    0.013499|
|         397|   -4.149677|   -6.173291|    0.826976|    0.013504|
|         398|   -4.149687|   -6.180132|    0.827040|    0.013510|
|         399|   -4.149326|   -6.186886|    0.827103|    0.013516|
|         400|   -4.148659|   -6.193488|    0.827166|    0.013522|
|         401|   -4.147753|   -6.199856|    0.827232|    0.013299|
+-----------------------------------------------------------------------+
|Fixed CL Mode                           |Value                         |
+-----------------------------------------------------------------------+
|Current CL                              |0.827232                      |
|Target CL                               |0.824                         |
|Previous AOA                            |2.85565                       |
|Changed AoA by                          |-0.0158296                    |
+-----------------------------------------------------------------------+
+----------------------------------------------------------------+
|  Inner_Iter|    rms[Rho]|     rms[nu]|          CL|          CD|
+----------------------------------------------------------------+
|         402|   -1.993842|   -5.993478|    0.827293|    0.013305|
|         403|   -2.378115|   -6.080439|    0.827353|    0.013311|
|         404|   -2.622501|   -6.115738|    0.827413|    0.013317|
|         405|   -2.702356|   -6.138293|    0.827471|    0.013323|
|         406|   -2.756895|   -6.155943|    0.827529|    0.013329|
|         407|   -2.827369|   -6.170651|    0.827585|    0.013335|
|         408|   -2.914422|   -6.182975|    0.827640|    0.013341|
|         409|   -3.005262|   -6.193208|    0.827694|    0.013346|
|         410|   -3.083085|   -6.201501|    0.827748|    0.013352|
|         411|   -3.139326|   -6.207961|    0.827800|    0.013357|
|         412|   -3.175792|   -6.212714|    0.827851|    0.013363|
|         413|   -3.196621|   -6.216239|    0.827902|    0.013368|
|         414|   -3.205856|   -6.219169|    0.827951|    0.013373|
|         415|   -3.209419|   -6.221983|    0.828000|    0.013378|
|         416|   -3.213910|   -6.224867|    0.828048|    0.013383|
|         417|   -3.223729|   -6.227853|    0.828095|    0.013388|
|         418|   -3.239882|   -6.230905|    0.828142|    0.013392|
|         419|   -3.260537|   -6.234086|    0.828188|    0.013397|
|         420|   -3.282506|   -6.237460|    0.828233|    0.013401|
|         421|   -3.303081|   -6.241079|    0.828278|    0.013406|
|         422|   -3.321356|   -6.244892|    0.828322|    0.013410|
|         423|   -3.338179|   -6.248778|    0.828365|    0.013414|
|         424|   -3.354985|   -6.252626|    0.828407|    0.013418|
|         425|   -3.372673|   -6.256265|    0.828449|    0.013422|
|         426|   -3.391215|   -6.259568|    0.828490|    0.013426|
|         427|   -3.409876|   -6.262483|    0.828529|    0.013429|
|         428|   -3.427643|   -6.265004|    0.828568|    0.013433|
|         429|   -3.443571|   -6.267194|    0.828606|    0.013437|
|         430|   -3.456983|   -6.269090|    0.828642|    0.013440|
|         431|   -3.467606|   -6.270731|    0.828677|    0.013443|
|         432|   -3.475665|   -6.272143|    0.828710|    0.013446|
|         433|   -3.481880|   -6.273379|    0.828742|    0.013450|
|         434|   -3.487308|   -6.274511|    0.828771|    0.013453|
|         435|   -3.493071|   -6.275565|    0.828798|    0.013455|
|         436|   -3.500099|   -6.276560|    0.828824|    0.013458|
|         437|   -3.508971|   -6.277512|    0.828846|    0.013461|
|         438|   -3.519848|   -6.278295|    0.828866|    0.013463|
|         439|   -3.532478|   -6.279027|    0.828884|    0.013465|
|         440|   -3.546239|   -6.279568|    0.828898|    0.013467|
|         441|   -3.560224|   -6.279753|    0.828910|    0.013469|
|         442|   -3.573420|   -6.279661|    0.828918|    0.013471|
|         443|   -3.584955|   -6.279354|    0.828923|    0.013472|
|         444|   -3.594360|   -6.278827|    0.828925|    0.013474|
|         445|   -3.601716|   -6.278100|    0.828923|    0.013475|
|         446|   -3.607620|   -6.277242|    0.828917|    0.013475|
|         447|   -3.612968|   -6.276173|    0.828907|    0.013476|
|         448|   -3.618682|   -6.275001|    0.828893|    0.013476|
|         449|   -3.625493|   -6.273751|    0.828875|    0.013476|
|         450|   -3.633822|   -6.272442|    0.828852|    0.013475|
|         451|   -3.643761|   -6.271132|    0.828825|    0.013474|
|         452|   -3.655109|   -6.269915|    0.828792|    0.013473|
|         453|   -3.667463|   -6.268844|    0.828755|    0.013471|
|         454|   -3.680322|   -6.267942|    0.828713|    0.013469|
|         455|   -3.693196|   -6.267233|    0.828666|    0.013467|
|         456|   -3.705709|   -6.266772|    0.828614|    0.013464|
|         457|   -3.717661|   -6.266671|    0.828556|    0.013460|
|         458|   -3.729042|   -6.266966|    0.828494|    0.013456|
|         459|   -3.739999|   -6.267760|    0.828428|    0.013452|
|         460|   -3.750772|   -6.269121|    0.828357|    0.013447|
|         461|   -3.761623|   -6.271154|    0.828281|    0.013442|
|         462|   -3.772778|   -6.273826|    0.828202|    0.013437|
|         463|   -3.784394|   -6.277157|    0.828120|    0.013431|
|         464|   -3.796556|   -6.281255|    0.828035|    0.013425|
|         465|   -3.809283|   -6.286126|    0.827948|    0.013418|
|         466|   -3.822551|   -6.291814|    0.827859|    0.013412|
|         467|   -3.836318|   -6.298345|    0.827769|    0.013405|
|         468|   -3.850536|   -6.305739|    0.827678|    0.013397|
|         469|   -3.865171|   -6.313958|    0.827588|    0.013390|
|         470|   -3.880203|   -6.322944|    0.827500|    0.013382|
|         471|   -3.895619|   -6.332571|    0.827413|    0.013375|
|         472|   -3.911408|   -6.342689|    0.827329|    0.013367|
|         473|   -3.927550|   -6.353057|    0.827249|    0.013359|
|         474|   -3.944006|   -6.363381|    0.827173|    0.013352|
|         475|   -3.960718|   -6.373303|    0.827102|    0.013344|
|         476|   -3.977598|   -6.382445|    0.827037|    0.013337|
|         477|   -3.994538|   -6.390370|    0.826978|    0.013330|
|         478|   -4.011408|   -6.396629|    0.826926|    0.013322|
|         479|   -4.028066|   -6.400762|    0.826882|    0.013315|
|         480|   -4.044358|   -6.402391|    0.826846|    0.013309|
|         481|   -4.060133|   -6.401336|    0.826818|    0.013302|
|         482|   -4.075244|   -6.397528|    0.826798|    0.013296|
|         483|   -4.089556|   -6.391126|    0.826788|    0.013290|
|         484|   -4.102955|   -6.382461|    0.826786|    0.013284|
|         485|   -4.115353|   -6.371993|    0.826793|    0.013279|
|         486|   -4.126694|   -6.360225|    0.826808|    0.013273|
|         487|   -4.136956|   -6.347678|    0.826833|    0.013268|
|         488|   -4.146154|   -6.334844|    0.826866|    0.013264|
|         489|   -4.154337|   -6.322161|    0.826907|    0.013259|
|         490|   -4.161587|   -6.310006|    0.826955|    0.013255|
|         491|   -4.168006|   -6.298677|    0.827012|    0.013251|
|         492|   -4.173715|   -6.288420|    0.827075|    0.013247|
|         493|   -4.178842|   -6.279425|    0.827145|    0.013244|
|         494|   -4.183514|   -6.271831|    0.827222|    0.013241|
|         495|   -4.187852|   -6.265736|    0.827304|    0.013238|
|         496|   -4.191968|   -6.261212|    0.827391|    0.013235|
|         497|   -4.195956|   -6.258307|    0.827483|    0.013232|
|         498|   -4.199895|   -6.257044|    0.827579|    0.013230|
|         499|   -4.203848|   -6.257427|    0.827678|    0.013228|
|         500|   -4.207858|   -6.259445|    0.827781|    0.013226|
|         501|   -4.211956|   -6.263063|    0.827891|    0.012951|
+-----------------------------------------------------------------------+
|Fixed CL Mode                           |Value                         |
+-----------------------------------------------------------------------+
|Current CL                              |0.827891                      |
|Target CL                               |0.824                         |
|Previous AOA                            |2.83982                       |
|Changed AoA by                          |-0.0189056                    |
+-----------------------------------------------------------------------+
+----------------------------------------------------------------+
|  Inner_Iter|    rms[Rho]|     rms[nu]|          CL|          CD|
+----------------------------------------------------------------+
|         502|   -1.916728|   -5.956602|    0.827998|    0.012950|
|         503|   -2.300462|   -6.065165|    0.828108|    0.012949|
|         504|   -2.542758|   -6.112830|    0.828218|    0.012948|
|         505|   -2.621181|   -6.145617|    0.828329|    0.012948|
|         506|   -2.675187|   -6.173625|    0.828440|    0.012947|
|         507|   -2.745351|   -6.199334|    0.828551|    0.012947|
|         508|   -2.832261|   -6.223128|    0.828662|    0.012948|
|         509|   -2.923534|   -6.245057|    0.828771|    0.012948|
|         510|   -3.002932|   -6.264874|    0.828879|    0.012949|
|         511|   -3.061878|   -6.282037|    0.828984|    0.012950|
|         512|   -3.101481|   -6.296009|    0.829088|    0.012952|
|         513|   -3.125062|   -6.307040|    0.829189|    0.012953|
|         514|   -3.136139|   -6.315828|    0.829287|    0.012955|
|         515|   -3.140611|   -6.323054|    0.829381|    0.012957|
|         516|   -3.145424|   -6.328888|    0.829472|    0.012960|
|         517|   -3.155353|   -6.333117|    0.829559|    0.012963|
|         518|   -3.171637|   -6.335644|    0.829641|    0.012966|
|         519|   -3.192550|   -6.336674|    0.829720|    0.012969|
|         520|   -3.214926|   -6.336531|    0.829793|    0.012972|
|         521|   -3.236054|   -6.335496|    0.829862|    0.012976|
|         522|   -3.255029|   -6.333748|    0.829925|    0.012979|
|         523|   -3.272702|   -6.331217|    0.829984|    0.012983|
|         524|   -3.290500|   -6.327803|    0.830037|    0.012987|
|         525|   -3.309268|   -6.323477|    0.830085|    0.012991|
|         526|   -3.328872|   -6.318180|    0.830128|    0.012995|
|         527|   -3.348437|   -6.312030|    0.830165|    0.012999|
|         528|   -3.366814|   -6.305249|    0.830197|    0.013004|
|         529|   -3.382974|   -6.298018|    0.830223|    0.013008|
|         530|   -3.396231|   -6.290512|    0.830244|    0.013013|
|         531|   -3.406384|   -6.282926|    0.830260|    0.013017|
|         532|   -3.413788|   -6.275461|    0.830270|    0.013022|
|         533|   -3.419308|   -6.268120|    0.830275|    0.013026|
|         534|   -3.424124|   -6.260993|    0.830274|    0.013031|
|         535|   -3.429430|   -6.254138|    0.830269|    0.013035|
|         536|   -3.436176|   -6.247559|    0.830258|    0.013040|
|         537|   -3.444919|   -6.241171|    0.830242|    0.013044|
|         538|   -3.455766|   -6.234903|    0.830221|    0.013049|
|         539|   -3.468394|   -6.228865|    0.830195|    0.013054|
|         540|   -3.482090|   -6.222884|    0.830165|    0.013058|
|         541|   -3.495858|   -6.216788|    0.830130|    0.013063|
|         542|   -3.508607|   -6.210696|    0.830090|    0.013067|
|         543|   -3.519423|   -6.204671|    0.830046|    0.013072|
|         544|   -3.527848|   -6.198681|    0.829998|    0.013076|
|         545|   -3.534029|   -6.192776|    0.829945|    0.013081|
|         546|   -3.538653|   -6.187039|    0.829888|    0.013085|
|         547|   -3.542700|   -6.181394|    0.829826|    0.013090|
|         548|   -3.547150|   -6.175918|    0.829759|    0.013094|
|         549|   -3.552758|   -6.170609|    0.829689|    0.013098|
|         550|   -3.559946|   -6.165418|    0.829613|    0.013102|
|         551|   -3.568789|   -6.160405|    0.829532|    0.013106|
|         552|   -3.579072|   -6.155564|    0.829447|    0.013110|
|         553|   -3.590378|   -6.150874|    0.829356|    0.013114|
|         554|   -3.602204|   -6.146257|    0.829260|    0.013117|
|         555|   -3.614069|   -6.141699|    0.829159|    0.013121|
|         556|   -3.625617|   -6.137190|    0.829053|    0.013124|
|         557|   -3.636670|   -6.132774|    0.828941|    0.013126|
|         558|   -3.647239|   -6.128434|    0.828825|    0.013129|
|         559|   -3.657488|   -6.124224|    0.828703|    0.013131|
|         560|   -3.667666|   -6.120216|    0.828576|    0.013133|
|         561|   -3.678038|   -6.116396|    0.828445|    0.013135|
|         562|   -3.688831|   -6.112773|    0.828310|    0.013136|
|         563|   -3.700205|   -6.109392|    0.828171|    0.013137|
|         564|   -3.712246|   -6.106291|    0.828028|    0.013138|
|         565|   -3.724977|   -6.103516|    0.827883|    0.013138|
|         566|   -3.738381|   -6.101138|    0.827736|    0.013139|
|         567|   -3.752422|   -6.099199|    0.827587|    0.013139|
|         568|   -3.767066|   -6.097747|    0.827437|    0.013138|
|         569|   -3.782288|   -6.096845|    0.827288|    0.013138|
|         570|   -3.798076|   -6.096530|    0.827139|    0.013137|
|         571|   -3.814428|   -6.096832|    0.826992|    0.013136|
|         572|   -3.831339|   -6.097639|    0.826848|    0.013135|
|         573|   -3.848798|   -6.098938|    0.826708|    0.013134|
|         574|   -3.866769|   -6.100695|    0.826573|    0.013133|
|         575|   -3.885190|   -6.102805|    0.826442|    0.013131|
|         576|   -3.903967|   -6.105151|    0.826319|    0.013130|
|         577|   -3.922972|   -6.107625|    0.826202|    0.013128|
|         578|   -3.942041|   -6.110060|    0.826093|    0.013127|
|         579|   -3.960985|   -6.112307|    0.825993|    0.013125|
|         580|   -3.979583|   -6.114228|    0.825902|    0.013123|
|         581|   -3.997602|   -6.115665|    0.825821|    0.013122|
|         582|   -4.014793|   -6.116437|    0.825750|    0.013120|
|         583|   -4.030916|   -6.116413|    0.825689|    0.013118|
|         584|   -4.045742|   -6.115503|    0.825639|    0.013117|
|         585|   -4.059080|   -6.113683|    0.825600|    0.013115|
|         586|   -4.070786|   -6.110969|    0.825572|    0.013113|
|         587|   -4.080777|   -6.107412|    0.825554|    0.013111|
|         588|   -4.089041|   -6.103112|    0.825548|    0.013109|
|         589|   -4.095637|   -6.098204|    0.825552|    0.013108|
|         590|   -4.100687|   -6.092867|    0.825566|    0.013106|
|         591|   -4.104361|   -6.087291|    0.825590|    0.013104|
|         592|   -4.106867|   -6.081675|    0.825623|    0.013102|
|         593|   -4.108426|   -6.076206|    0.825666|    0.013100|
|         594|   -4.109262|   -6.071056|    0.825717|    0.013098|
|         595|   -4.109586|   -6.066383|    0.825776|    0.013095|
|         596|   -4.109588|   -6.062318|    0.825843|    0.013093|
|         597|   -4.109436|   -6.058966|    0.825916|    0.013091|
|         598|   -4.109268|   -6.056409|    0.825996|    0.013089|
|         599|   -4.109195|   -6.054699|    0.826082|    0.013087|
|         600|   -4.109307|   -6.053866|    0.826173|    0.013084|
|         601|   -4.109669|   -6.053912|    0.826270|    0.012925|
+-----------------------------------------------------------------------+
|Fixed CL Mode                           |Value                         |
+-----------------------------------------------------------------------+
|Current CL                              |0.82627                       |
|Target CL                               |0.824                         |
|Previous AOA                            |2.82091                       |
|Changed AoA by                          |-0.0108633                    |
+-----------------------------------------------------------------------+
+----------------------------------------------------------------+
|  Inner_Iter|    rms[Rho]|     rms[nu]|          CL|          CD|
+----------------------------------------------------------------+
|         602|   -2.157325|   -5.981310|    0.826370|    0.012923|
|         603|   -2.540176|   -6.016404|    0.826472|    0.012921|
|         604|   -2.779433|   -6.029514|    0.826577|    0.012919|
|         605|   -2.855891|   -6.038523|    0.826684|    0.012917|
|         606|   -2.909059|   -6.046334|    0.826793|    0.012914|
|         607|   -2.978467|   -6.053551|    0.826902|    0.012912|
|         608|   -3.064495|   -6.060275|    0.827012|    0.012911|
|         609|   -3.155164|   -6.066500|    0.827121|    0.012909|
|         610|   -3.235057|   -6.072131|    0.827230|    0.012907|
|         611|   -3.295988|   -6.077006|    0.827337|    0.012905|
|         612|   -3.338564|   -6.080991|    0.827442|    0.012904|
|         613|   -3.365229|   -6.084032|    0.827544|    0.012902|
|         614|   -3.378734|   -6.086125|    0.827644|    0.012901|
|         615|   -3.384661|   -6.087281|    0.827740|    0.012899|
|         616|   -3.390121|   -6.087490|    0.827832|    0.012898|
|         617|   -3.400225|   -6.086745|    0.827920|    0.012897|
|         618|   -3.416497|   -6.085081|    0.828003|    0.012896|
|         619|   -3.437410|   -6.082595|    0.828081|    0.012895|
|         620|   -3.459956|   -6.079453|    0.828154|    0.012894|
|         621|   -3.481539|   -6.075802|    0.828222|    0.012893|
|         622|   -3.501314|   -6.071776|    0.828284|    0.012892|
|         623|   -3.520121|   -6.067506|    0.828340|    0.012892|
|         624|   -3.539308|   -6.063104|    0.828390|    0.012891|
|         625|   -3.559592|   -6.058686|    0.828435|    0.012890|
|         626|   -3.580655|   -6.054359|    0.828473|    0.012889|
|         627|   -3.601407|   -6.050226|    0.828505|    0.012888|
|         628|   -3.620501|   -6.046378|    0.828532|    0.012888|
|         629|   -3.636789|   -6.042897|    0.828552|    0.012887|
|         630|   -3.649600|   -6.039853|    0.828567|    0.012886|
|         631|   -3.658874|   -6.037319|    0.828576|    0.012886|
|         632|   -3.665183|   -6.035298|    0.828579|    0.012885|
|         633|   -3.669610|   -6.033774|    0.828578|    0.012885|
|         634|   -3.673485|   -6.032729|    0.828571|    0.012884|
|         635|   -3.678061|   -6.032142|    0.828559|    0.012884|
|         636|   -3.684269|   -6.032013|    0.828543|    0.012883|
|         637|   -3.692590|   -6.032273|    0.828522|    0.012883|
|         638|   -3.703023|   -6.032856|    0.828497|    0.012883|
|         639|   -3.715121|   -6.033704|    0.828469|    0.012883|
|         640|   -3.728048|   -6.034773|    0.828437|    0.012883|
|         641|   -3.740710|   -6.035995|    0.828401|    0.012884|
|         642|   -3.751963|   -6.037289|    0.828363|    0.012885|
|         643|   -3.760912|   -6.038599|    0.828322|    0.012886|
|         644|   -3.767186|   -6.039882|    0.828278|    0.012887|
|         645|   -3.771054|   -6.041107|    0.828233|    0.012888|
|         646|   -3.773312|   -6.042239|    0.828185|    0.012890|
|         647|   -3.775004|   -6.043255|    0.828135|    0.012892|
|         648|   -3.777118|   -6.044125|    0.828083|    0.012894|
|         649|   -3.780380|   -6.044848|    0.828029|    0.012896|
|         650|   -3.785163|   -6.045417|    0.827973|    0.012899|
|         651|   -3.791500|   -6.045844|    0.827916|    0.012902|
|         652|   -3.799152|   -6.046154|    0.827857|    0.012905|
|         653|   -3.807711|   -6.046323|    0.827796|    0.012908|
|         654|   -3.816709|   -6.046350|    0.827733|    0.012912|
|         655|   -3.825726|   -6.046218|    0.827669|    0.012916|
|         656|   -3.834472|   -6.045932|    0.827602|    0.012920|
|         657|   -3.842829|   -6.045498|    0.827533|    0.012924|
|         658|   -3.850845|   -6.044900|    0.827463|    0.012929|
|         659|   -3.858692|   -6.044152|    0.827391|    0.012933|
|         660|   -3.866602|   -6.043285|    0.827316|    0.012938|
|         661|   -3.874812|   -6.042318|    0.827240|    0.012943|
|         662|   -3.883514|   -6.041257|    0.827162|    0.012948|
|         663|   -3.892839|   -6.040113|    0.827083|    0.012953|
|         664|   -3.902855|   -6.038928|    0.827001|    0.012957|
|         665|   -3.913579|   -6.037740|    0.826919|    0.012962|
|         666|   -3.924999|   -6.036542|    0.826835|    0.012968|
|         667|   -3.937088|   -6.035384|    0.826751|    0.012973|
|         668|   -3.949824|   -6.034313|    0.826666|    0.012977|
|         669|   -3.963196|   -6.033398|    0.826581|    0.012982|
|         670|   -3.977205|   -6.032699|    0.826496|    0.012987|
|         671|   -3.991859|   -6.032212|    0.826412|    0.012992|
|         672|   -4.007170|   -6.031991|    0.826329|    0.012997|
|         673|   -4.023140|   -6.032002|    0.826247|    0.013002|
|         674|   -4.039757|   -6.032258|    0.826167|    0.013006|
|         675|   -4.056988|   -6.032767|    0.826090|    0.013010|
|         676|   -4.074777|   -6.033526|    0.826015|    0.013015|
|         677|   -4.093038|   -6.034532|    0.825944|    0.013019|
|         678|   -4.111658|   -6.035757|    0.825877|    0.013023|
|         679|   -4.130498|   -6.037166|    0.825813|    0.013027|
|         680|   -4.149389|   -6.038715|    0.825754|    0.013030|
|         681|   -4.168136|   -6.040357|    0.825700|    0.013034|
|         682|   -4.186522|   -6.042025|    0.825651|    0.013037|
|         683|   -4.204308|   -6.043647|    0.825607|    0.013040|
|         684|   -4.221245|   -6.045154|    0.825569|    0.013043|
|         685|   -4.237084|   -6.046482|    0.825536|    0.013046|
|         686|   -4.251590|   -6.047573|    0.825510|    0.013049|
|         687|   -4.264557|   -6.048378|    0.825489|    0.013051|
|         688|   -4.275830|   -6.048868|    0.825474|    0.013053|
|         689|   -4.285313|   -6.049013|    0.825464|    0.013055|
|         690|   -4.292981|   -6.048811|    0.825461|    0.013056|
|         691|   -4.298880|   -6.048277|    0.825463|    0.013058|
|         692|   -4.303119|   -6.047446|    0.825471|    0.013059|
|         693|   -4.305861|   -6.046366|    0.825484|    0.013060|
|         694|   -4.307305|   -6.045099|    0.825502|    0.013060|
|         695|   -4.307668|   -6.043719|    0.825525|    0.013061|
|         696|   -4.307173|   -6.042303|    0.825553|    0.013061|
|         697|   -4.306035|   -6.040929|    0.825585|    0.013062|
|         698|   -4.304452|   -6.039667|    0.825621|    0.013062|
|         699|   -4.302602|   -6.038591|    0.825661|    0.013061|
|         700|   -4.300639|   -6.037748|    0.825704|    0.013061|
|         701|   -4.298695|   -6.037180|    0.825753|    0.012938|
+-----------------------------------------------------------------------+
|Fixed CL Mode                           |Value                         |
+-----------------------------------------------------------------------+
|Current CL                              |0.825753                      |
|Target CL                               |0.824                         |
|Previous AOA                            |2.81005                       |
|Changed AoA by                          |-0.00852245                   |
+-----------------------------------------------------------------------+
+----------------------------------------------------------------+
|  Inner_Iter|    rms[Rho]|     rms[nu]|          CL|          CD|
+----------------------------------------------------------------+
|         702|   -2.262791|   -5.992432|    0.825803|    0.012937|
|         703|   -2.646198|   -6.013650|    0.825855|    0.012937|
|         704|   -2.886547|   -6.020578|    0.825909|    0.012936|
|         705|   -2.963101|   -6.024889|    0.825964|    0.012935|
|         706|   -3.016006|   -6.028442|    0.826022|    0.012935|
|         707|   -3.085241|   -6.031654|    0.826080|    0.012934|
|         708|   -3.171229|   -6.034645|    0.826139|    0.012933|
|         709|   -3.261935|   -6.037474|    0.826198|    0.012932|
|         710|   -3.341821|   -6.040140|    0.826257|    0.012931|
|         711|   -3.402596|   -6.042606|    0.826315|    0.012930|
|         712|   -3.444868|   -6.044833|    0.826373|    0.012929|
|         713|   -3.471161|   -6.046821|    0.826430|    0.012928|
|         714|   -3.484333|   -6.048592|    0.826485|    0.012927|
|         715|   -3.490037|   -6.050153|    0.826538|    0.012926|
|         716|   -3.495385|   -6.051487|    0.826590|    0.012925|
|         717|   -3.505452|   -6.052578|    0.826639|    0.012924|
|         718|   -3.521721|   -6.053402|    0.826685|    0.012922|
|         719|   -3.542626|   -6.053961|    0.826729|    0.012921|
|         720|   -3.565122|   -6.054285|    0.826770|    0.012920|
|         721|   -3.586581|   -6.054412|    0.826807|    0.012919|
|         722|   -3.606144|   -6.054380|    0.826842|    0.012917|
|         723|   -3.624658|   -6.054219|    0.826873|    0.012916|
|         724|   -3.643491|   -6.053959|    0.826901|    0.012914|
|         725|   -3.663389|   -6.053635|    0.826925|    0.012913|
|         726|   -3.684077|   -6.053285|    0.826946|    0.012911|
|         727|   -3.704514|   -6.052957|    0.826964|    0.012910|
|         728|   -3.723404|   -6.052698|    0.826978|    0.012908|
|         729|   -3.739635|   -6.052549|    0.826988|    0.012906|
|         730|   -3.752546|   -6.052550|    0.826995|    0.012904|
|         731|   -3.762055|   -6.052734|    0.826999|    0.012902|
|         732|   -3.768698|   -6.053125|    0.827000|    0.012900|
|         733|   -3.773521|   -6.053749|    0.826998|    0.012898|
|         734|   -3.777829|   -6.054646|    0.826993|    0.012896|
|         735|   -3.782877|   -6.055757|    0.826984|    0.012894|
|         736|   -3.789613|   -6.057071|    0.826974|    0.012892|
|         737|   -3.798549|   -6.058569|    0.826960|    0.012890|
|         738|   -3.809725|   -6.060229|    0.826944|    0.012888|
|         739|   -3.822728|   -6.062017|    0.826926|    0.012886|
|         740|   -3.836748|   -6.063907|    0.826906|    0.012884|
|         741|   -3.850686|   -6.065878|    0.826884|    0.012883|
|         742|   -3.863358|   -6.067864|    0.826860|    0.012881|
|         743|   -3.873796|   -6.069839|    0.826834|    0.012879|
|         744|   -3.881541|   -6.071779|    0.826806|    0.012878|
|         745|   -3.886796|   -6.073658|    0.826777|    0.012877|
|         746|   -3.890330|   -6.075459|    0.826747|    0.012875|
|         747|   -3.893205|   -6.077164|    0.826715|    0.012874|
|         748|   -3.896456|   -6.078741|    0.826681|    0.012873|
|         749|   -3.900861|   -6.080186|    0.826646|    0.012873|
|         750|   -3.906837|   -6.081510|    0.826610|    0.012872|
|         751|   -3.914442|   -6.082695|    0.826572|    0.012872|
|         752|   -3.923439|   -6.083732|    0.826532|    0.012872|
|         753|   -3.933397|   -6.084627|    0.826491|    0.012872|
|         754|   -3.943805|   -6.085378|    0.826448|    0.012872|
|         755|   -3.954194|   -6.085992|    0.826403|    0.012872|
|         756|   -3.964222|   -6.086473|    0.826356|    0.012873|
|         757|   -3.973736|   -6.086836|    0.826307|    0.012873|
|         758|   -3.982768|   -6.087104|    0.826257|    0.012874|
|         759|   -3.991492|   -6.087280|    0.826205|    0.012875|
|         760|   -4.000159|   -6.087367|    0.826151|    0.012876|
|         761|   -4.009027|   -6.087382|    0.826095|    0.012878|
|         762|   -4.018309|   -6.087337|    0.826037|    0.012879|
|         763|   -4.028153|   -6.087250|    0.825978|    0.012881|
|         764|   -4.038634|   -6.087144|    0.825918|    0.012882|
|         765|   -4.049768|   -6.087053|    0.825856|    0.012884|
|         766|   -4.061538|   -6.087000|    0.825793|    0.012886|
|         767|   -4.073910|   -6.087019|    0.825730|    0.012888|
|         768|   -4.086855|   -6.087172|    0.825666|    0.012890|
|         769|   -4.100357|   -6.087492|    0.825602|    0.012892|
|         770|   -4.114414|   -6.087987|    0.825538|    0.012895|
|         771|   -4.129035|   -6.088697|    0.825475|    0.012897|
|         772|   -4.144234|   -6.089653|    0.825412|    0.012900|
|         773|   -4.160016|   -6.090824|    0.825351|    0.012902|
|         774|   -4.176372|   -6.092207|    0.825292|    0.012905|
|         775|   -4.193274|   -6.093801|    0.825235|    0.012908|
|         776|   -4.210669|   -6.095575|    0.825180|    0.012911|
|         777|   -4.228478|   -6.097497|    0.825128|    0.012914|
|         778|   -4.246597|   -6.099516|    0.825079|    0.012917|
|         779|   -4.264899|   -6.101563|    0.825033|    0.012920|
|         780|   -4.283232|   -6.103535|    0.824991|    0.012924|
|         781|   -4.301426|   -6.105283|    0.824954|    0.012927|
|         782|   -4.319289|   -6.106618|    0.824920|    0.012931|
|         783|   -4.336620|   -6.107595|    0.824891|    0.012934|
|         784|   -4.353208|   -6.109292|    0.824866|    0.012938|
|         785|   -4.368845|   -6.111688|    0.824846|    0.012941|
|         786|   -4.383336|   -6.113813|    0.824830|    0.012945|
|         787|   -4.396512|   -6.115587|    0.824819|    0.012948|
|         788|   -4.408242|   -6.117047|    0.824813|    0.012952|
|         789|   -4.418445|   -6.118211|    0.824811|    0.012956|
|         790|   -4.427091|   -6.119090|    0.824813|    0.012959|
|         791|   -4.434212|   -6.119712|    0.824820|    0.012963|
|         792|   -4.439885|   -6.120109|    0.824831|    0.012966|
|         793|   -4.444235|   -6.120328|    0.824846|    0.012970|
|         794|   -4.447413|   -6.120422|    0.824865|    0.012973|
|         795|   -4.449591|   -6.120446|    0.824888|    0.012976|
|         796|   -4.450944|   -6.120464|    0.824914|    0.012979|
|         797|   -4.451647|   -6.120535|    0.824943|    0.012983|
|         798|   -4.451859|   -6.120718|    0.824974|    0.012986|
|         799|   -4.451728|   -6.121049|    0.825009|    0.012989|
|         800|   -4.451382|   -6.121568|    0.825046|    0.012991|
|         801|   -4.450931|   -6.122303|    0.825086|    0.012919|
+-----------------------------------------------------------------------+
|Fixed CL Mode                           |Value                         |
+-----------------------------------------------------------------------+
|Current CL                              |0.825086                      |
|Target CL                               |0.824                         |
|Previous AOA                            |2.80153                       |
|Changed AoA by                          |-0.00522868                   |
+-----------------------------------------------------------------------+
+----------------------------------------------------------------+
|  Inner_Iter|    rms[Rho]|     rms[nu]|          CL|          CD|
+----------------------------------------------------------------+
|         802|   -2.474982|   -6.097257|    0.825126|    0.012922|
|         803|   -2.858453|   -6.111054|    0.825169|    0.012924|
|         804|   -3.098750|   -6.116300|    0.825212|    0.012927|
|         805|   -3.175024|   -6.120064|    0.825256|    0.012929|
|         806|   -3.227639|   -6.123427|    0.825301|    0.012931|
|         807|   -3.296572|   -6.126617|    0.825347|    0.012934|
|         808|   -3.382210|   -6.129687|    0.825392|    0.012936|
|         809|   -3.472544|   -6.132654|    0.825438|    0.012938|
|         810|   -3.552160|   -6.135508|    0.825483|    0.012939|
|         811|   -3.612892|   -6.138219|    0.825527|    0.012941|
|         812|   -3.655352|   -6.140757|    0.825571|    0.012943|
|         813|   -3.681980|   -6.143144|    0.825613|    0.012944|
|         814|   -3.695515|   -6.145397|    0.825654|    0.012945|
|         815|   -3.701508|   -6.147524|    0.825693|    0.012946|
|         816|   -3.707030|   -6.149490|    0.825731|    0.012947|
|         817|   -3.717168|   -6.151244|    0.825767|    0.012948|
|         818|   -3.733441|   -6.152753|    0.825800|    0.012949|
|         819|   -3.754324|   -6.154010|    0.825832|    0.012949|
|         820|   -3.776815|   -6.155033|    0.825861|    0.012950|
|         821|   -3.798325|   -6.155851|    0.825887|    0.012950|
|         822|   -3.818016|   -6.156500|    0.825911|    0.012950|
|         823|   -3.836733|   -6.157016|    0.825932|    0.012950|
|         824|   -3.855822|   -6.157438|    0.825951|    0.012949|
|         825|   -3.875998|   -6.157821|    0.825967|    0.012949|
|         826|   -3.896940|   -6.158240|    0.825981|    0.012948|
|         827|   -3.917559|   -6.158781|    0.825992|    0.012947|
|         828|   -3.936510|   -6.159495|    0.826000|    0.012946|
|         829|   -3.952647|   -6.160389|    0.826005|    0.012945|
|         830|   -3.965312|   -6.161465|    0.826008|    0.012943|
|         831|   -3.974461|   -6.162740|    0.826009|    0.012942|
|         832|   -3.980688|   -6.164236|    0.826008|    0.012940|
|         833|   -3.985099|   -6.165971|    0.826004|    0.012938|
|         834|   -3.989038|   -6.167950|    0.825998|    0.012936|
|         835|   -3.993776|   -6.170171|    0.825990|    0.012934|
|         836|   -4.000256|   -6.172623|    0.825980|    0.012932|
|         837|   -4.008973|   -6.175288|    0.825968|    0.012930|
|         838|   -4.019943|   -6.178142|    0.825955|    0.012927|
|         839|   -4.032731|   -6.181194|    0.825940|    0.012925|
|         840|   -4.046509|   -6.184375|    0.825924|    0.012923|
|         841|   -4.060169|   -6.187641|    0.825906|    0.012920|
|         842|   -4.072531|   -6.190956|    0.825888|    0.012918|
|         843|   -4.082642|   -6.194284|    0.825868|    0.012915|
|         844|   -4.090063|   -6.197629|    0.825848|    0.012913|
|         845|   -4.095014|   -6.200955|    0.825827|    0.012911|
|         846|   -4.098273|   -6.204216|    0.825805|    0.012909|
|         847|   -4.100893|   -6.207396|    0.825782|    0.012907|
|         848|   -4.103898|   -6.210473|    0.825759|    0.012905|
|         849|   -4.108049|   -6.213435|    0.825735|    0.012903|
|         850|   -4.113752|   -6.216265|    0.825711|    0.012901|
|         851|   -4.121055|   -6.218951|    0.825686|    0.012899|
|         852|   -4.129720|   -6.221488|    0.825661|    0.012898|
|         853|   -4.139317|   -6.223869|    0.825635|    0.012896|
|         854|   -4.149346|   -6.226090|    0.825608|    0.012895|
|         855|   -4.159347|   -6.228153|    0.825581|    0.012894|
|         856|   -4.168993|   -6.230062|    0.825553|    0.012893|
|         857|   -4.178134|   -6.231824|    0.825524|    0.012892|
|         858|   -4.186806|   -6.233429|    0.825495|    0.012891|
|         859|   -4.195179|   -6.234878|    0.825465|    0.012890|
|         860|   -4.203496|   -6.236173|    0.825434|    0.012890|
|         861|   -4.212004|   -6.237321|    0.825403|    0.012889|
|         862|   -4.220907|   -6.238327|    0.825371|    0.012889|
|         863|   -4.230340|   -6.239197|    0.825339|    0.012889|
|         864|   -4.240372|   -6.239947|    0.825306|    0.012889|
|         865|   -4.251013|   -6.240601|    0.825272|    0.012889|
|         866|   -4.262239|   -6.241194|    0.825238|    0.012890|
|         867|   -4.274011|   -6.241770|    0.825205|    0.012890|
|         868|   -4.286294|   -6.242457|    0.825171|    0.012891|
|         869|   -4.299066|   -6.243278|    0.825137|    0.012891|
|         870|   -4.312315|   -6.244265|    0.825103|    0.012892|
|         871|   -4.326040|   -6.245405|    0.825070|    0.012893|
|         872|   -4.340242|   -6.246708|    0.825038|    0.012894|
|         873|   -4.354912|   -6.248183|    0.825006|    0.012895|
|         874|   -4.370027|   -6.249802|    0.824976|    0.012897|
|         875|   -4.385542|   -6.251535|    0.824947|    0.012898|
|         876|   -4.401388|   -6.253369|    0.824919|    0.012900|
|         877|   -4.417473|   -6.255306|    0.824893|    0.012901|
|         878|   -4.433679|   -6.257347|    0.824869|    0.012903|
|         879|   -4.449869|   -6.259487|    0.824847|    0.012905|
|         880|   -4.465887|   -6.261716|    0.824827|    0.012907|
|         881|   -4.481561|   -6.264007|    0.824809|    0.012909|
|         882|   -4.496713|   -6.266329|    0.824794|    0.012911|
|         883|   -4.511158|   -6.268647|    0.824782|    0.012913|
|         884|   -4.524716|   -6.270919|    0.824772|    0.012916|
|         885|   -4.537223|   -6.273105|    0.824764|    0.012918|
|         886|   -4.548535|   -6.275158|    0.824760|    0.012921|
|         887|   -4.558542|   -6.277041|    0.824758|    0.012923|
|         888|   -4.567176|   -6.278728|    0.824758|    0.012926|
|         889|   -4.574414|   -6.280202|    0.824762|    0.012928|
|         890|   -4.580280|   -6.281453|    0.824767|    0.012931|
|         891|   -4.584843|   -6.282482|    0.824776|    0.012934|
|         892|   -4.588207|   -6.283304|    0.824787|    0.012936|
|         893|   -4.590507|   -6.283946|    0.824800|    0.012939|
|         894|   -4.591893|   -6.284438|    0.824815|    0.012942|
|         895|   -4.592523|   -6.284823|    0.824833|    0.012944|
|         896|   -4.592557|   -6.285141|    0.824852|    0.012947|
|         897|   -4.592145|   -6.285442|    0.824873|    0.012950|
|         898|   -4.591427|   -6.285771|    0.824896|    0.012953|
|         899|   -4.590527|   -6.286173|    0.824920|    0.012955|
|         900|   -4.589557|   -6.286687|    0.824946|    0.012958|
|         901|   -4.588611|   -6.287349|    0.824974|    0.012893|
+-----------------------------------------------------------------------+
|Fixed CL Mode                           |Value                         |
+-----------------------------------------------------------------------+
|Current CL                              |0.824974                      |
|Target CL                               |0.824                         |
|Previous AOA                            |2.7963                        |
[...]
|        5298|   -6.079047|   -7.805611|    0.824240|    0.012806|
|        5299|   -6.086555|   -7.809589|    0.824240|    0.012806|
|        5300|   -6.093673|   -7.813541|    0.824240|    0.012806|
|        5301|   -6.100354|   -7.817465|    0.824240|    0.012806|
|        5302|   -6.106562|   -7.821357|    0.824240|    0.012806|
|        5303|   -6.112271|   -7.825214|    0.824240|    0.012806|
|        5304|   -6.117469|   -7.829033|    0.824240|    0.012806|
|        5305|   -6.122156|   -7.832813|    0.824240|    0.012806|
|        5306|   -6.126344|   -7.836554|    0.824240|    0.012806|
|        5307|   -6.130059|   -7.840259|    0.824240|    0.012806|
|        5308|   -6.133336|   -7.843932|    0.824241|    0.012806|
|        5309|   -6.136218|   -7.847580|    0.824241|    0.012806|
|        5310|   -6.138758|   -7.851212|    0.824241|    0.012806|
|        5311|   -6.141012|   -7.854841|    0.824241|    0.012806|
|        5312|   -6.143040|   -7.858479|    0.824241|    0.012806|
|        5313|   -6.144904|   -7.862143|    0.824241|    0.012806|
|        5314|   -6.146665|   -7.865848|    0.824241|    0.012806|
|        5315|   -6.148380|   -7.869613|    0.824241|    0.012806|
|        5316|   -6.150107|   -7.873454|    0.824241|    0.012806|
|        5317|   -6.151897|   -7.877387|    0.824241|    0.012806|
|        5318|   -6.153794|   -7.881428|    0.824242|    0.012806|
|        5319|   -6.155840|   -7.885592|    0.824242|    0.012806|
|        5320|   -6.158066|   -7.889891|    0.824242|    0.012806|
|        5321|   -6.160499|   -7.894336|    0.824242|    0.012806|
|        5322|   -6.163159|   -7.898933|    0.824242|    0.012806|
|        5323|   -6.166056|   -7.903688|    0.824242|    0.012806|
|        5324|   -6.169196|   -7.908604|    0.824242|    0.012807|
|        5325|   -6.172574|   -7.913680|    0.824242|    0.012807|
|        5326|   -6.176181|   -7.918912|    0.824242|    0.012807|
|        5327|   -6.180000|   -7.924295|    0.824243|    0.012807|
|        5328|   -6.184005|   -7.929820|    0.824243|    0.012807|
|        5329|   -6.188167|   -7.935477|    0.824243|    0.012807|
|        5330|   -6.192448|   -7.941253|    0.824243|    0.012807|
|        5331|   -6.196808|   -7.947137|    0.824243|    0.012807|
|        5332|   -6.201200|   -7.953114|    0.824243|    0.012807|
|        5333|   -6.205577|   -7.959170|    0.824243|    0.012807|
|        5334|   -6.209890|   -7.965292|    0.824243|    0.012807|
|        5335|   -6.214087|   -7.971467|    0.824243|    0.012808|
|        5336|   -6.218122|   -7.977683|    0.824244|    0.012808|
|        5337|   -6.221951|   -7.983931|    0.824244|    0.012808|
|        5338|   -6.225533|   -7.990204|    0.824244|    0.012808|
|        5339|   -6.228838|   -7.996495|    0.824244|    0.012808|
|        5340|   -6.231841|   -8.002800|    0.824244|    0.012808|
|        5341|   -6.234529|   -8.009118|    0.824244|    0.012808|
|        5342|   -6.236897|   -8.015449|    0.824244|    0.012808|
|        5343|   -6.238951|   -8.021796|    0.824244|    0.012808|
|        5344|   -6.240707|   -8.028163|    0.824244|    0.012808|
|        5345|   -6.242191|   -8.034557|    0.824244|    0.012808|
|        5346|   -6.243438|   -8.040983|    0.824244|    0.012808|
|        5347|   -6.244487|   -8.047448|    0.824244|    0.012808|
|        5348|   -6.245387|   -8.053961|    0.824244|    0.012809|
|        5349|   -6.246186|   -8.060526|    0.824244|    0.012809|
|        5350|   -6.246937|   -8.067151|    0.824244|    0.012809|
|        5351|   -6.247695|   -8.073839|    0.824244|    0.012809|
|        5352|   -6.248510|   -8.080592|    0.824244|    0.012809|
|        5353|   -6.249435|   -8.087411|    0.824244|    0.012809|
|        5354|   -6.250516|   -8.094294|    0.824244|    0.012809|
|        5355|   -6.251798|   -8.101238|    0.824244|    0.012809|
|        5356|   -6.253319|   -8.108238|    0.824244|    0.012809|
|        5357|   -6.255114|   -8.115283|    0.824244|    0.012809|
|        5358|   -6.257213|   -8.122359|    0.824244|    0.012809|
|        5359|   -6.259640|   -8.129450|    0.824244|    0.012809|
|        5360|   -6.262412|   -8.136539|    0.824244|    0.012809|
|        5361|   -6.265542|   -8.143607|    0.824244|    0.012809|
|        5362|   -6.269037|   -8.150632|    0.824244|    0.012809|
|        5363|   -6.272897|   -8.157593|    0.824244|    0.012809|
|        5364|   -6.277118|   -8.164468|    0.824243|    0.012809|
|        5365|   -6.281689|   -8.171237|    0.824243|    0.012809|
|        5366|   -6.286593|   -8.177879|    0.824243|    0.012809|
|        5367|   -6.291808|   -8.184377|    0.824243|    0.012809|
|        5368|   -6.297305|   -8.190715|    0.824243|    0.012809|
|        5369|   -6.303050|   -8.196880|    0.824243|    0.012809|
|        5370|   -6.309003|   -8.202863|    0.824243|    0.012809|
|        5371|   -6.315121|   -8.208661|    0.824243|    0.012809|
|        5372|   -6.321353|   -8.214272|    0.824242|    0.012809|
|        5373|   -6.327646|   -8.219701|    0.824242|    0.012809|
|        5374|   -6.333943|   -8.224956|    0.824242|    0.012809|
|        5375|   -6.340186|   -8.230051|    0.824242|    0.012809|
|        5376|   -6.346313|   -8.235002|    0.824242|    0.012808|
|        5377|   -6.352266|   -8.239829|    0.824242|    0.012808|
|        5378|   -6.357985|   -8.244555|    0.824242|    0.012808|
|        5379|   -6.363417|   -8.249206|    0.824241|    0.012808|
|        5380|   -6.368511|   -8.253808|    0.824241|    0.012808|
|        5381|   -6.373223|   -8.258387|    0.824241|    0.012808|
|        5382|   -6.377519|   -8.262973|    0.824241|    0.012808|
|        5383|   -6.381371|   -8.267592|    0.824241|    0.012808|
|        5384|   -6.384761|   -8.272270|    0.824241|    0.012808|
|        5385|   -6.387683|   -8.277030|    0.824241|    0.012808|
|        5386|   -6.390138|   -8.281894|    0.824241|    0.012808|
|        5387|   -6.392135|   -8.286881|    0.824241|    0.012808|
|        5388|   -6.393695|   -8.292007|    0.824241|    0.012807|
|        5389|   -6.394842|   -8.297284|    0.824241|    0.012807|
|        5390|   -6.395606|   -8.302720|    0.824241|    0.012807|
|        5391|   -6.396021|   -8.308321|    0.824240|    0.012807|
|        5392|   -6.396123|   -8.314088|    0.824240|    0.012807|
|        5393|   -6.395949|   -8.320017|    0.824240|    0.012807|
|        5394|   -6.395535|   -8.326102|    0.824240|    0.012807|
|        5395|   -6.394916|   -8.332334|    0.824240|    0.012807|
|        5396|   -6.394123|   -8.338698|    0.824240|    0.012807|
|        5397|   -6.393186|   -8.345179|    0.824240|    0.012807|
|        5398|   -6.392131|   -8.351757|    0.824240|    0.012806|
|        5399|   -6.390980|   -8.358409|    0.824240|    0.012806|
|        5400|   -6.389752|   -8.365113|    0.824240|    0.012806|
|        5401|   -6.388463|   -8.371844|    0.824240|    0.012806|
|        5402|   -6.387126|   -8.378574|    0.824240|    0.012806|
|        5403|   -6.385750|   -8.385278|    0.824241|    0.012806|
|        5404|   -6.384343|   -8.391930|    0.824241|    0.012806|
|        5405|   -6.382910|   -8.398504|    0.824241|    0.012806|
|        5406|   -6.381456|   -8.404977|    0.824241|    0.012806|
|        5407|   -6.379982|   -8.411325|    0.824241|    0.012806|
|        5408|   -6.378492|   -8.417528|    0.824241|    0.012805|
|        5409|   -6.376986|   -8.423568|    0.824241|    0.012805|
|        5410|   -6.375465|   -8.429430|    0.824241|    0.012805|
|        5411|   -6.373931|   -8.435101|    0.824241|    0.012805|
|        5412|   -6.372385|   -8.440569|    0.824241|    0.012805|
|        5413|   -6.370829|   -8.445826|    0.824241|    0.012805|
|        5414|   -6.369265|   -8.450865|    0.824241|    0.012805|
|        5415|   -6.367695|   -8.455681|    0.824241|    0.012805|
|        5416|   -6.366125|   -8.460270|    0.824241|    0.012805|
|        5417|   -6.364557|   -8.464628|    0.824241|    0.012805|
|        5418|   -6.362997|   -8.468755|    0.824241|    0.012805|
|        5419|   -6.361451|   -8.472646|    0.824241|    0.012805|
|        5420|   -6.359927|   -8.476301|    0.824241|    0.012805|
|        5421|   -6.358432|   -8.479717|    0.824241|    0.012805|
|        5422|   -6.356976|   -8.482891|    0.824241|    0.012804|
|        5423|   -6.355567|   -8.485822|    0.824241|    0.012804|
|        5424|   -6.354219|   -8.488508|    0.824241|    0.012804|
|        5425|   -6.352941|   -8.490948|    0.824241|    0.012804|
|        5426|   -6.351748|   -8.493142|    0.824241|    0.012804|
|        5427|   -6.350653|   -8.495090|    0.824241|    0.012804|
|        5428|   -6.349670|   -8.496795|    0.824241|    0.012804|
|        5429|   -6.348815|   -8.498263|    0.824241|    0.012804|
|        5430|   -6.348104|   -8.499500|    0.824241|    0.012804|
|        5431|   -6.347552|   -8.500516|    0.824240|    0.012804|
|        5432|   -6.347177|   -8.501323|    0.824240|    0.012804|
|        5433|   -6.346993|   -8.501935|    0.824240|    0.012804|
|        5434|   -6.347019|   -8.502371|    0.824240|    0.012804|
|        5435|   -6.347270|   -8.502650|    0.824240|    0.012804|
|        5436|   -6.347760|   -8.502794|    0.824240|    0.012804|
|        5437|   -6.348505|   -8.502825|    0.824240|    0.012804|
|        5438|   -6.349517|   -8.502769|    0.824240|    0.012804|
|        5439|   -6.350809|   -8.502650|    0.824240|    0.012804|
|        5440|   -6.352390|   -8.502493|    0.824240|    0.012804|
|        5441|   -6.354268|   -8.502324|    0.824240|    0.012804|
|        5442|   -6.356451|   -8.502167|    0.824239|    0.012805|
|        5443|   -6.358940|   -8.502046|    0.824239|    0.012805|
|        5444|   -6.361738|   -8.501982|    0.824239|    0.012805|
|        5445|   -6.364841|   -8.501995|    0.824239|    0.012805|
|        5446|   -6.368245|   -8.502104|    0.824239|    0.012805|
|        5447|   -6.371941|   -8.502326|    0.824239|    0.012805|
|        5448|   -6.375916|   -8.502675|    0.824239|    0.012805|
|        5449|   -6.380155|   -8.503164|    0.824238|    0.012805|
|        5450|   -6.384635|   -8.503802|    0.824238|    0.012805|
|        5451|   -6.389334|   -8.504598|    0.824238|    0.012805|
|        5452|   -6.394222|   -8.505559|    0.824238|    0.012805|
|        5453|   -6.399266|   -8.506690|    0.824238|    0.012805|
|        5454|   -6.404429|   -8.507995|    0.824237|    0.012805|
|        5455|   -6.409669|   -8.509474|    0.824237|    0.012805|
|        5456|   -6.414943|   -8.511129|    0.824237|    0.012805|
|        5457|   -6.420200|   -8.512960|    0.824237|    0.012806|
|        5458|   -6.425392|   -8.514965|    0.824237|    0.012806|
|        5459|   -6.430466|   -8.517142|    0.824236|    0.012806|
|        5460|   -6.435368|   -8.519489|    0.824236|    0.012806|
|        5461|   -6.440046|   -8.522001|    0.824236|    0.012806|
|        5462|   -6.444449|   -8.524675|    0.824236|    0.012806|
|        5463|   -6.448528|   -8.527507|    0.824235|    0.012806|
|        5464|   -6.452240|   -8.530491|    0.824235|    0.012806|
|        5465|   -6.455546|   -8.533622|    0.824235|    0.012806|
|        5466|   -6.458416|   -8.536894|    0.824235|    0.012806|
|        5467|   -6.460826|   -8.540301|    0.824234|    0.012806|
|        5468|   -6.462762|   -8.543835|    0.824234|    0.012806|
|        5469|   -6.464218|   -8.547488|    0.824234|    0.012806|
|        5470|   -6.465199|   -8.551252|    0.824233|    0.012806|
|        5471|   -6.465716|   -8.555117|    0.824233|    0.012806|
|        5472|   -6.465791|   -8.559073|    0.824233|    0.012807|
|        5473|   -6.465452|   -8.563108|    0.824233|    0.012807|
|        5474|   -6.464735|   -8.567211|    0.824232|    0.012807|
|        5475|   -6.463678|   -8.571366|    0.824232|    0.012807|
|        5476|   -6.462325|   -8.575561|    0.824232|    0.012807|
|        5477|   -6.460723|   -8.579779|    0.824231|    0.012807|
|        5478|   -6.458919|   -8.584004|    0.824231|    0.012807|
|        5479|   -6.456959|   -8.588219|    0.824231|    0.012807|
|        5480|   -6.454890|   -8.592406|    0.824230|    0.012807|
|        5481|   -6.452758|   -8.596548|    0.824230|    0.012807|
|        5482|   -6.450603|   -8.600625|    0.824230|    0.012807|
|        5483|   -6.448467|   -8.604620|    0.824229|    0.012807|
|        5484|   -6.446386|   -8.608515|    0.824229|    0.012807|
|        5485|   -6.444392|   -8.612294|    0.824229|    0.012807|
|        5486|   -6.442517|   -8.615941|    0.824229|    0.012807|
|        5487|   -6.440786|   -8.619441|    0.824228|    0.012807|
|        5488|   -6.439223|   -8.622784|    0.824228|    0.012807|
|        5489|   -6.437848|   -8.625958|    0.824228|    0.012807|
|        5490|   -6.436677|   -8.628957|    0.824227|    0.012807|
|        5491|   -6.435725|   -8.631775|    0.824227|    0.012807|
|        5492|   -6.435002|   -8.634410|    0.824227|    0.012807|
|        5493|   -6.434519|   -8.636863|    0.824227|    0.012807|
|        5494|   -6.434281|   -8.639136|    0.824226|    0.012807|
|        5495|   -6.434292|   -8.641237|    0.824226|    0.012807|
|        5496|   -6.434556|   -8.643172|    0.824226|    0.012807|
|        5497|   -6.435072|   -8.644953|    0.824226|    0.012807|
|        5498|   -6.435841|   -8.646592|    0.824225|    0.012807|
|        5499|   -6.436859|   -8.648103|    0.824225|    0.012792|
+-----------------------------------------------------------------------+
|Fixed CL Mode (Finite Difference)       |Value                         |
+-----------------------------------------------------------------------+
|Delta CL / Delta AoA                    |0.225207                      |
|Delta CD / Delta CL                     |0.0359962                     |
|Delta CMz / Delta CL                    |0.0158171                     |
+-----------------------------------------------------------------------+
Writing Flow Meta-Data file: flow.meta

----------------------------- Solver Exit -------------------------------

Maximum number of iterations reached (ITER = 5500) before convergence.
+-----------------------------------------------------------------------+
|      Convergence Field     |     Value    |   Criterion  |  Converged |
+-----------------------------------------------------------------------+
|                    rms[Rho]|      -6.43686|         < -12|          No|
+-----------------------------------------------------------------------+
-------------------------------------------------------------------------

--------------------------- Finalizing Solver ---------------------------
Deleted CNumerics container.
Deleted CIntegration container.
Deleted CSolver container.
Deleted CIteration container.
Deleted CInterface container.
Deleted CGeometry container.
Deleted CFreeFormDefBox class.
Deleted CSurfaceMovement class.
Deleted CVolumetricMovement class.
Deleted CConfig container.
Deleted nInst container.
Deleted COutput class.
-------------------------------------------------------------------------

------------------------- Exit Success (SU2_CFD) ------------------------


-------------------------------------------------------------------------
|    ___ _   _ ___                                                      |
|   / __| | | |_  )   Release 8.0.0 "Harrier"                           |
|   \__ \ |_| |/ /                                                      |
|   |___/\___//___|   Suite (Solution Exporting Code)                   |
|                                                                       |
-------------------------------------------------------------------------
| SU2 Project Website: https://su2code.github.io                        |
|                                                                       |
| The SU2 Project is maintained by the SU2 Foundation                   |
| (http://su2foundation.org)                                            |
-------------------------------------------------------------------------
| Copyright 2012-2023, SU2 Contributors                                 |
|                                                                       |
| SU2 is free software; you can redistribute it and/or                  |
| modify it under the terms of the GNU Lesser General Public            |
| License as published by the Free Software Foundation; either          |
| version 2.1 of the License, or (at your option) any later version.    |
|                                                                       |
| SU2 is distributed in the hope that it will be useful,                |
| but WITHOUT ANY WARRANTY; without even the implied warranty of        |
| MERCHANTABILITY or FITNESS FOR A PARTICULAR PURPOSE. See the GNU      |
| Lesser General Public License for more details.                       |
|                                                                       |
| You should have received a copy of the GNU Lesser General Public      |
| License along with SU2. If not, see <http://www.gnu.org/licenses/>.   |
-------------------------------------------------------------------------

----------------- Physical Case Definition ( Zone 0 ) -------------------
Input mesh file name: mesh_RAE2822_turb_deform.su2

-------------------- Output Information ( Zone 0 ) ----------------------
The tabular file format is CSV (.csv).
Flow variables file name: flow.

------------- Config File Boundary Information ( Zone 0 ) ---------------
+-----------------------------------------------------------------------+
|                        Marker Type|                        Marker Name|
+-----------------------------------------------------------------------+
|                          Far-field|                           FARFIELD|
+-----------------------------------------------------------------------+
|                     Heat flux wall|                            AIRFOIL|
+-----------------------------------------------------------------------+
Two dimensional problem.
13937 grid points before partitioning.
22842 volume elements before partitioning.
2 surface markers.
192 boundary elements in index 0 (Marker = AIRFOIL).
40 boundary elements in index 1 (Marker = FARFIELD).
Executing the partitioning functions.
Building the graph adjacency structure.
Calling ParMETIS... graph partitioning complete (831 edge cuts).
Distributing ParMETIS coloring.
Rebalancing vertices.
Rebalancing volume element connectivity.
Rebalancing markers and surface elements.
14875 vertices including ghost points. 
23674 interior elements including halo cells. 
18780 triangles.
4894 quadrilaterals.
Establishing MPI communication patterns.
Identify vertices.
Storing a mapping from global to local point index.

------------------------- Solution Postprocessing -----------------------
Reading and storing the solution from restart_flow.
Volume output fields: COORDINATES, SOLUTION
  Info: Ignoring the following screen output fields:
  RMS_DENSITY, RMS_NU_TILDE, LIFT, DRAG
Screen output fields: INNER_ITER
  Info: Ignoring the following history output groups:
  RMS_RES, AERO_COEFF
History output group(s): ITER
Warning: No (valid) fields chosen for convergence monitoring. Convergence monitoring inactive.
Warning: No (valid) fields chosen for time convergence monitoring. Time convergence monitoring inactive.
|Paraview                           |flow.vtu                           |
|Paraview surface                   |surface_flow.vtu                   |
|CSV file                           |surface_flow.csv                   |

------------------------- Finalize Solver -------------------------
Deleted CGeometry container.
Deleted CSolver class.
Deleted CConfig container.
Deleted COutput class.

Completed in 0.016940 seconds on 6 cores.

------------------------- Exit Success (SU2_SOL) ------------------------

