
-------------------------------------------------------------------------
|    ___ _   _ ___                                                      |
|   / __| | | |_  )   Release 8.0.0 "Harrier"                           |
|   \__ \ |_| |/ /                                                      |
|   |___/\___//___|   Suite (Computational Fluid Dynamics Code)         |
|                                                                       |
-------------------------------------------------------------------------
| SU2 Project Website: https://su2code.github.io                        |
|                                                                       |
| The SU2 Project is maintained by the SU2 Foundation                   |
| (http://su2foundation.org)                                            |
-------------------------------------------------------------------------
| Copyright 2012-2023, SU2 Contributors                                 |
|                                                                       |
| SU2 is free software; you can redistribute it and/or                  |
| modify it under the terms of the GNU Lesser General Public            |
| License as published by the Free Software Foundation; either          |
| version 2.1 of the License, or (at your option) any later version.    |
|                                                                       |
| SU2 is distributed in the hope that it will be useful,                |
| but WITHOUT ANY WARRANTY; without even the implied warranty of        |
| MERCHANTABILITY or FITNESS FOR A PARTICULAR PURPOSE. See the GNU      |
| Lesser General Public License for more details.                       |
|                                                                       |
| You should have received a copy of the GNU Lesser General Public      |
| License along with SU2. If not, see <http://www.gnu.org/licenses/>.   |
-------------------------------------------------------------------------

Parsing config file for zone 0

----------------- Physical Case Definition ( Zone 0 ) -------------------
Compressible RANS equations.
Turbulence model: Spalart-Allmaras-noft2
Hybrid RANS/LES: No Hybrid RANS/LES
Mach number: 0.734.
Angle of attack (AoA): 2.31 deg, and angle of sideslip (AoS): 0 deg.
Reynolds number: 6.5e+06. Reference length 1.
Fixed CL mode, target value: 0.824.
Reading and writing binary SU2 native restart files.
Read flow solution from: solution_flow.dat.
Dimensional simulation.
The reference area is 1 m^2.
The semi-span will be computed using the max y(3D) value.
The reference length is 1 m.
Reference origin for moment evaluation is (0.25, 0, 0).
Surface(s) where the force coefficients are evaluated: AIRFOIL.

Surface(s) plotted in the output file: AIRFOIL.
Surface(s) affected by the design variables: AIRFOIL.
Input mesh file name: mesh_RAE2822_turb_deform.su2

--------------- Space Numerical Integration ( Zone 0 ) ------------------
Jameson-Schmidt-Turkel scheme (2nd order in space) for the flow inviscid terms.
JST viscous coefficients (2nd & 4th): 0.5, 0.02.
The method includes a grid stretching correction (p = 0.3).
Scalar upwind solver for the turbulence model.
First order integration in space.
Average of gradients with correction (viscous flow terms).
Average of gradients with correction (viscous turbulence terms).
Gradient for viscous and source terms: inverse-distance weighted Least-Squares.

--------------- Time Numerical Integration  ( Zone 0 ) ------------------
Local time stepping (steady state simulation).
Euler implicit method for the flow equations.
FGMRES is used for solving the linear system.
Using a ILU(0) preconditioning.
Convergence criteria of the linear solver: 1e-06.
Max number of linear iterations: 10.
No CFL adaptation.
Courant-Friedrichs-Lewy number:       10
Euler implicit time integration for the turbulence model.

------------------ Convergence Criteria  ( Zone 0 ) ---------------------
Maximum number of solver subiterations: 5500.
Begin convergence monitoring at iteration 10.
Residual minimum value: 1e-12.
Cauchy series min. value: 1e-06.
Number of Cauchy elements: 100.
Begin windowed time average at iteration 0.

-------------------- Output Information ( Zone 0 ) ----------------------
File writing frequency: 
+------------------------------------+
|                     File| Frequency|
+------------------------------------+
|                  RESTART|     10000|
|                 PARAVIEW|     10000|
|         SURFACE_PARAVIEW|     10000|
|              SURFACE_CSV|     10000|
+------------------------------------+
Writing the convergence history file every 1 inner iterations.
Writing the screen convergence history every 1 inner iterations.
The tabular file format is CSV (.csv).
Convergence history file name: history_direct.
Forces breakdown file name: forces_breakdown.dat.
Surface file name: surface_flow.
Volume file name: flow.
Restart file name: restart_flow.dat.

------------- Config File Boundary Information ( Zone 0 ) ---------------
+-----------------------------------------------------------------------+
|                        Marker Type|                        Marker Name|
+-----------------------------------------------------------------------+
|                          Far-field|                           FARFIELD|
+-----------------------------------------------------------------------+
|                     Heat flux wall|                            AIRFOIL|
+-----------------------------------------------------------------------+

-------------------- Output Preprocessing ( Zone 0 ) --------------------

WARNING: SURFACE_PRESSURE_DROP can only be computed for at least 2 surfaces (outlet, inlet, ...)

Screen output fields: INNER_ITER, RMS_DENSITY, RMS_NU_TILDE, LIFT, DRAG
History output group(s): ITER, RMS_RES, AERO_COEFF
Convergence field(s): RMS_DENSITY
Warning: No (valid) fields chosen for time convergence monitoring. Time convergence monitoring inactive.
Volume output fields: COORDINATES, SOLUTION, PRIMITIVE

------------------- Geometry Preprocessing ( Zone 0 ) -------------------
Two dimensional problem.
13937 grid points before partitioning.
22842 volume elements before partitioning.
2 surface markers.
192 boundary elements in index 0 (Marker = AIRFOIL).
40 boundary elements in index 1 (Marker = FARFIELD).
Executing the partitioning functions.
Building the graph adjacency structure.
Calling ParMETIS... graph partitioning complete (831 edge cuts).
Distributing ParMETIS coloring.
Rebalancing vertices.
Rebalancing volume element connectivity.
Rebalancing markers and surface elements.
14875 vertices including ghost points. 
23674 interior elements including halo cells. 
18780 triangles.
4894 quadrilaterals.
Establishing MPI communication patterns.
Setting point connectivity.
Renumbering points (Reverse Cuthill McKee Ordering).
Recomputing point connectivity.
Setting element connectivity.
Checking the numerical grid orientation.
All volume elements are correctly orientend.
All surface elements are correctly orientend.
Identifying edges and vertices.
Setting the control volume structure.
Area of the computational grid: 32209.9.
Searching for the closest normal neighbors to the surfaces.
Storing a mapping from global to local point index.
Compute the surface curvature.
Max K: 174.907. Mean K: 7.85052. Standard deviation K: 24.0678.
Checking for periodicity.
Computing mesh quality statistics for the dual control volumes.
+--------------------------------------------------------------+
|           Mesh Quality Metric|        Minimum|        Maximum|
+--------------------------------------------------------------+
|    Orthogonality Angle (deg.)|        75.1246|        89.9991|
|     CV Face Area Aspect Ratio|        1.00395|         3358.5|
|           CV Sub-Volume Ratio|        1.00046|        1215.32|
+--------------------------------------------------------------+
Finding max control volume width.
Communicating number of neighbors.
Wetted area = 2.02184 m.
Area projection in the x-plane = 0.124887 m, y-plane = 0.995873 m.
Max. coordinate in the x-direction = 1 m, y-direction = 0.0620722 m.
Min. coordinate in the x-direction = 0 m, y-direction = -0.0599475 m.
Computing wall distances.

-------------------- Solver Preprocessing ( Zone 0 ) --------------------
WARNING: AoA in the solution file (2.78894 deg.) +
         AoA offset in mesh file (0 deg.) = 2.78894 deg.
WARNING: SU2 will use the dCD/dCL provided in the direct solution file: 0.018124.
WARNING: SU2 will use the dCMz/dCL provided in the direct solution file: 0.00584739.
Viscous flow: Computing pressure using the ideal gas law
based on the free-stream temperature and a density computed
from the Reynolds number.
Force coefficients computed using free-stream values.

-- Models:
+------------------------------------------------------------------------------+
|          Viscosity Model|        Conductivity Model|              Fluid Model|
+------------------------------------------------------------------------------+
|               SUTHERLAND|          CONSTANT_PRANDTL|             STANDARD_AIR|
+------------------------------------------------------------------------------+
-- Fluid properties:
+------------------------------------------------------------------------------+
|                  Name|    Dim. value|    Ref. value|      Unit|Non-dim. value|
+------------------------------------------------------------------------------+
|        Ref. Viscosity|     1.716e-05|             1|   N.s/m^2|     1.716e-05|
|      Sutherland Temp.|        273.15|             1|         K|        273.15|
|     Sutherland Const.|         110.4|             1|         K|         110.4|
+------------------------------------------------------------------------------+
|        Prandtl (Lam.)|             -|             -|         -|          0.71|
|       Prandtl (Turb.)|             -|             -|         -|           0.9|
+------------------------------------------------------------------------------+
|          Gas Constant|       287.058|             1|  N.m/kg.K|       287.058|
|      Spec. Heat Ratio|             -|             -|         -|           1.4|
+------------------------------------------------------------------------------+
-- Initial and free-stream conditions:
+------------------------------------------------------------------------------+
|                  Name|    Dim. value|    Ref. value|      Unit|Non-dim. value|
+------------------------------------------------------------------------------+
|       Static Pressure|         38515|             1|        Pa|         38515|
|               Density|      0.465631|             1|    kg/m^3|      0.465631|
|           Temperature|        288.15|             1|         K|        288.15|
|          Total Energy|        237984|             1|   m^2/s^2|        237984|
|            Velocity-X|       249.482|             1|       m/s|       249.482|
|            Velocity-Y|       12.1534|             1|       m/s|       12.1534|
|    Velocity Magnitude|       249.778|             1|       m/s|       249.778|
+------------------------------------------------------------------------------+
|             Viscosity|    1.7893e-05|             1|   N.s/m^2|    1.7893e-05|
|          Conductivity|             -|             1|   W/m^2.K|             -|
|     Turb. Kin. Energy|       233.959|             1|   m^2/s^2|       233.959|
|     Spec. Dissipation|        608834|             1|       1/s|        608834|
+------------------------------------------------------------------------------+
|           Mach Number|             -|             -|         -|         0.734|
|       Reynolds Number|             -|             -|         -|       6.5e+06|
+------------------------------------------------------------------------------+
Initialize Jacobian structure (Navier-Stokes). MG level: 0.
Initialize Jacobian structure (SA model).

------------------- Numerics Preprocessing ( Zone 0 ) -------------------

----------------- Integration Preprocessing ( Zone 0 ) ------------------

------------------- Iteration Preprocessing ( Zone 0 ) ------------------
Euler/Navier-Stokes/RANS fluid iteration.

------------------------------ Begin Solver -----------------------------

Simulation Run using the Single-zone Driver
WARNING: SU2 was not compiled for an AVX-capable architecture. Performance could be better,
         see https://su2code.github.io/docs_v7/Build-SU2-Linux-MacOS/#compiler-optimizations
+----------------------------------------------------------------+
|  Inner_Iter|    rms[Rho]|     rms[nu]|          CL|          CD|
+----------------------------------------------------------------+
|           0|   -7.951709|   -9.119503|    0.824000|    0.012017|
|           1|   -8.018492|   -9.224531|    0.824000|    0.012017|
|           2|   -8.090694|   -9.337737|    0.824000|    0.012017|
|           3|   -8.142501|   -9.455471|    0.824000|    0.012017|
|           4|   -8.176543|   -9.579109|    0.824000|    0.012017|
|           5|   -8.200679|   -9.700979|    0.824000|    0.012017|
|           6|   -8.215998|   -9.789138|    0.824000|    0.012017|
|           7|   -8.221244|   -9.812179|    0.824000|    0.012017|
|           8|   -8.217278|   -9.792519|    0.824000|    0.012017|
|           9|   -8.206537|   -9.769067|    0.824000|    0.012017|
|          10|   -8.191527|   -9.757189|    0.824000|    0.012017|
|          11|   -8.174565|   -9.756310|    0.824000|    0.012017|
|          12|   -8.157800|   -9.760163|    0.824000|    0.012017|
|          13|   -8.142882|   -9.762116|    0.824000|    0.012017|
|          14|   -8.130636|   -9.758499|    0.824000|    0.012017|
|          15|   -8.121032|   -9.749468|    0.824000|    0.012017|
|          16|   -8.113447|   -9.737218|    0.824000|    0.012017|
|          17|   -8.107075|   -9.723762|    0.824000|    0.012017|
|          18|   -8.101304|   -9.710052|    0.824000|    0.012017|
|          19|   -8.095925|   -9.696252|    0.824000|    0.012017|
|          20|   -8.091109|   -9.682333|    0.824000|    0.012017|
|          21|   -8.087194|   -9.668458|    0.824000|    0.012017|
|          22|   -8.084446|   -9.655079|    0.824000|    0.012017|
|          23|   -8.082883|   -9.642831|    0.824000|    0.012017|
|          24|   -8.082255|   -9.632380|    0.824000|    0.012017|
|          25|   -8.082119|   -9.624293|    0.824000|    0.012017|
|          26|   -8.081985|   -9.618974|    0.824000|    0.012017|
|          27|   -8.081456|   -9.616623|    0.824000|    0.012017|
|          28|   -8.080314|   -9.617242|    0.824000|    0.012017|
|          29|   -8.078530|   -9.620650|    0.824000|    0.012017|
|          30|   -8.076222|   -9.626504|    0.824000|    0.012017|
|          31|   -8.073583|   -9.634330|    0.824000|    0.012017|
|          32|   -8.070820|   -9.643547|    0.824000|    0.012017|
|          33|   -8.068110|   -9.653502|    0.824000|    0.012017|
|          34|   -8.065582|   -9.663507|    0.824000|    0.012017|
|          35|   -8.063315|   -9.672886|    0.824000|    0.012017|
|          36|   -8.061341|   -9.681039|    0.824000|    0.012017|
|          37|   -8.059650|   -9.687509|    0.824000|    0.012017|
|          38|   -8.058202|   -9.692041|    0.824000|    0.012017|
|          39|   -8.056933|   -9.694613|    0.824000|    0.012017|
|          40|   -8.055767|   -9.695429|    0.824000|    0.012017|
|          41|   -8.054627|   -9.694875|    0.824000|    0.012017|
|          42|   -8.053448|   -9.693443|    0.824000|    0.012017|
|          43|   -8.052181|   -9.691660|    0.824000|    0.012017|
|          44|   -8.050799|   -9.690015|    0.824000|    0.012017|
|          45|   -8.049296|   -9.688917|    0.824000|    0.012017|
|          46|   -8.047677|   -9.688672|    0.824000|    0.012017|
|          47|   -8.045950|   -9.689477|    0.824000|    0.012017|
|          48|   -8.044121|   -9.691418|    0.824000|    0.012017|
|          49|   -8.042186|   -9.694485|    0.824000|    0.012017|
|          50|   -8.040132|   -9.698580|    0.824000|    0.012017|
|          51|   -8.037940|   -9.703528|    0.824000|    0.012017|
|          52|   -8.035586|   -9.709093|    0.824000|    0.012017|
|          53|   -8.033054|   -9.714984|    0.824000|    0.012017|
|          54|   -8.030334|   -9.720884|    0.824000|    0.012017|
|          55|   -8.027427|   -9.726467|    0.824000|    0.012017|
|          56|   -8.024348|   -9.731431|    0.824000|    0.012017|
|          57|   -8.021119|   -9.735530|    0.824000|    0.012017|
|          58|   -8.017773|   -9.738600|    0.824000|    0.012017|
|          59|   -8.014346|   -9.740573|    0.824000|    0.012017|
|          60|   -8.010874|   -9.741477|    0.824000|    0.012017|
|          61|   -8.007397|   -9.741415|    0.824000|    0.012017|
|          62|   -8.003947|   -9.740542|    0.824000|    0.012017|
|          63|   -8.000555|   -9.739025|    0.824000|    0.012017|
|          64|   -7.997248|   -9.737026|    0.824000|    0.012017|
|          65|   -7.994046|   -9.734681|    0.824000|    0.012017|
|          66|   -7.990963|   -9.732099|    0.824000|    0.012017|
|          67|   -7.988009|   -9.729374|    0.824000|    0.012017|
|          68|   -7.985186|   -9.726592|    0.824000|    0.012017|
|          69|   -7.982493|   -9.723847|    0.824000|    0.012017|
|          70|   -7.979926|   -9.721248|    0.824000|    0.012017|
|          71|   -7.977481|   -9.718921|    0.824001|    0.012017|
|          72|   -7.975152|   -9.717001|    0.824001|    0.012017|
|          73|   -7.972937|   -9.715619|    0.824001|    0.012017|
|          74|   -7.970835|   -9.714891|    0.824001|    0.012017|
|          75|   -7.968846|   -9.714900|    0.824001|    0.012017|
|          76|   -7.966971|   -9.715693|    0.824001|    0.012017|
|          77|   -7.965207|   -9.717269|    0.824001|    0.012017|
|          78|   -7.963552|   -9.719587|    0.824001|    0.012017|
|          79|   -7.961995|   -9.722567|    0.824001|    0.012017|
|          80|   -7.960525|   -9.726099|    0.824001|    0.012017|
|          81|   -7.959125|   -9.730059|    0.824001|    0.012017|
|          82|   -7.957777|   -9.734318|    0.824001|    0.012017|
|          83|   -7.956463|   -9.738755|    0.824001|    0.012017|
|          84|   -7.955169|   -9.743265|    0.824001|    0.012017|
|          85|   -7.953887|   -9.747763|    0.824001|    0.012017|
|          86|   -7.952613|   -9.752186|    0.824001|    0.012017|
|          87|   -7.951355|   -9.756492|    0.824001|    0.012017|
|          88|   -7.950126|   -9.760654|    0.824001|    0.012017|
|          89|   -7.948947|   -9.764657|    0.824001|    0.012017|
|          90|   -7.947843|   -9.768491|    0.824001|    0.012017|
|          91|   -7.946842|   -9.772149|    0.824001|    0.012017|
|          92|   -7.945972|   -9.775624|    0.824001|    0.012017|
|          93|   -7.945262|   -9.778907|    0.824001|    0.012017|
|          94|   -7.944733|   -9.781991|    0.824001|    0.012017|
|          95|   -7.944406|   -9.784869|    0.824001|    0.012017|
|          96|   -7.944295|   -9.787533|    0.824001|    0.012017|
|          97|   -7.944405|   -9.789982|    0.824001|    0.012017|
|          98|   -7.944738|   -9.792215|    0.824001|    0.012017|
|          99|   -7.945288|   -9.794236|    0.824001|    0.012017|
|         100|   -7.946039|   -9.796051|    0.824001|    0.012017|
|         101|   -7.946972|   -9.797670|    0.824001|    0.012017|
+-----------------------------------------------------------------------+
|Fixed CL Mode                           |Value                         |
+-----------------------------------------------------------------------+
|Current CL                              |0.824001                      |
|Target CL                               |0.824                         |
|Previous AOA                            |2.78894                       |
|Changed AoA by                          |-3.21547e-06                  |
+-----------------------------------------------------------------------+
+----------------------------------------------------------------+
|  Inner_Iter|    rms[Rho]|     rms[nu]|          CL|          CD|
+----------------------------------------------------------------+
|         102|   -5.686080|   -9.642115|    0.824001|    0.012017|
|         103|   -6.070085|   -9.708802|    0.824001|    0.012017|
|         104|   -6.313298|   -9.732934|    0.824001|    0.012017|
|         105|   -6.392318|   -9.747183|    0.824001|    0.012017|
|         106|   -6.446645|   -9.757747|    0.824001|    0.012017|
|         107|   -6.517191|   -9.766149|    0.824001|    0.012017|
|         108|   -6.604637|   -9.772896|    0.824001|    0.012017|
|         109|   -6.696478|   -9.778309|    0.824001|    0.012017|
|         110|   -6.776098|   -9.782595|    0.824001|    0.012017|
|         111|   -6.834572|   -9.785823|    0.824001|    0.012017|
|         112|   -6.873027|   -9.788089|    0.824001|    0.012017|
|         113|   -6.895104|   -9.789654|    0.824001|    0.012017|
|         114|   -6.904724|   -9.790871|    0.824001|    0.012017|
|         115|   -6.908049|   -9.792004|    0.824001|    0.012017|
|         116|   -6.912040|   -9.793151|    0.824001|    0.012017|
|         117|   -6.921338|   -9.794321|    0.824001|    0.012017|
|         118|   -6.937022|   -9.795519|    0.824001|    0.012017|
|         119|   -6.957230|   -9.796797|    0.824001|    0.012017|
|         120|   -6.978693|   -9.798254|    0.824001|    0.012017|
|         121|   -6.998619|   -9.799977|    0.824001|    0.012017|
|         122|   -7.016057|   -9.802000|    0.824001|    0.012017|
|         123|   -7.031839|   -9.804307|    0.824001|    0.012017|
|         124|   -7.047397|   -9.806842|    0.824001|    0.012017|
|         125|   -7.063635|   -9.809553|    0.824001|    0.012017|
|         126|   -7.080550|   -9.812396|    0.824001|    0.012017|
|         127|   -7.097482|   -9.815345|    0.824001|    0.012017|
|         128|   -7.113539|   -9.818389|    0.824001|    0.012017|
|         129|   -7.127927|   -9.821523|    0.824001|    0.012017|
|         130|   -7.140111|   -9.824752|    0.824001|    0.012017|
|         131|   -7.149909|   -9.828090|    0.824001|    0.012017|
|         132|   -7.157559|   -9.831552|    0.824001|    0.012017|
|         133|   -7.163722|   -9.835154|    0.824001|    0.012017|
|         134|   -7.169351|   -9.838912|    0.824001|    0.012017|
|         135|   -7.175455|   -9.842831|    0.824001|    0.012017|
|         136|   -7.182877|   -9.846914|    0.824001|    0.012017|
|         137|   -7.192145|   -9.851155|    0.824001|    0.012017|
|         138|   -7.203406|   -9.855548|    0.824001|    0.012017|
|         139|   -7.216421|   -9.860081|    0.824001|    0.012017|
|         140|   -7.230599|   -9.864746|    0.824001|    0.012017|
|         141|   -7.245075|   -9.869536|    0.824001|    0.012017|
|         142|   -7.258873|   -9.874450|    0.824001|    0.012017|
|         143|   -7.271136|   -9.879489|    0.824001|    0.012017|
|         144|   -7.281378|   -9.884660|    0.824001|    0.012017|
|         145|   -7.289645|   -9.889974|    0.824001|    0.012017|
|         146|   -7.296479|   -9.895437|    0.824001|    0.012017|
|         147|   -7.302730|   -9.901057|    0.824001|    0.012017|
|         148|   -7.309291|   -9.906833|    0.824001|    0.012017|
|         149|   -7.316883|   -9.912760|    0.824001|    0.012017|
|         150|   -7.325925|   -9.918826|    0.824001|    0.012017|
|         151|   -7.336508|   -9.925015|    0.824001|    0.012017|
|         152|   -7.348434|   -9.931308|    0.824001|    0.012017|
|         153|   -7.361287|   -9.937685|    0.824001|    0.012017|
|         154|   -7.374548|   -9.944129|    0.824001|    0.012017|
|         155|   -7.387701|   -9.950631|    0.824001|    0.012017|
|         156|   -7.400339|   -9.957189|    0.824001|    0.012017|
|         157|   -7.412234|   -9.963810|    0.824001|    0.012017|
|         158|   -7.423348|   -9.970516|    0.824001|    0.012017|
|         159|   -7.433810|   -9.977337|    0.824000|    0.012017|
|         160|   -7.443842|   -9.984317|    0.824000|    0.012017|
|         161|   -7.453689|   -9.991512|    0.824000|    0.012017|
|         162|   -7.463563|   -9.998982|    0.824000|    0.012017|
|         163|   -7.473604|  -10.006797|    0.824000|    0.012017|
|         164|   -7.483877|  -10.015021|    0.824000|    0.012017|
|         165|   -7.494383|  -10.023714|    0.824000|    0.012017|
|         166|   -7.505083|  -10.032953|    0.824000|    0.012017|
|         167|   -7.515920|  -10.042786|    0.824000|    0.012017|
|         168|   -7.526838|  -10.053221|    0.824000|    0.012017|
|         169|   -7.537792|  -10.064241|    0.824000|    0.012017|
|         170|   -7.548754|  -10.075794|    0.824000|    0.012017|
|         171|   -7.559702|  -10.087768|    0.824000|    0.012017|
|         172|   -7.570616|  -10.099990|    0.824000|    0.012017|
|         173|   -7.581467|  -10.112207|    0.824000|    0.012017|
|         174|   -7.592213|  -10.124083|    0.824000|    0.012017|
|         175|   -7.602795|  -10.135198|    0.824000|    0.012017|
|         176|   -7.613139|  -10.145067|    0.824000|    0.012017|
|         177|   -7.623163|  -10.153165|    0.824000|    0.012017|
|         178|   -7.632778|  -10.158987|    0.824000|    0.012017|
|         179|   -7.641901|  -10.162109|    0.824000|    0.012017|
|         180|   -7.650457|  -10.162263|    0.824000|    0.012017|
|         181|   -7.658388|  -10.159386|    0.824000|    0.012017|
|         182|   -7.665652|  -10.153638|    0.824000|    0.012017|
|         183|   -7.672231|  -10.145382|    0.824000|    0.012017|
|         184|   -7.678126|  -10.135128|    0.824000|    0.012017|
|         185|   -7.683363|  -10.123461|    0.824000|    0.012017|
|         186|   -7.687986|  -10.110977|    0.824000|    0.012017|
|         187|   -7.692057|  -10.098235|    0.824000|    0.012017|
|         188|   -7.695656|  -10.085730|    0.824000|    0.012017|
|         189|   -7.698871|  -10.073874|    0.824000|    0.012017|
|         190|   -7.701800|  -10.063005|    0.824000|    0.012017|
|         191|   -7.704543|  -10.053385|    0.824000|    0.012017|
|         192|   -7.707199|  -10.045218|    0.824000|    0.012017|
|         193|   -7.709861|  -10.038655|    0.824000|    0.012017|
|         194|   -7.712616|  -10.033810|    0.824000|    0.012017|
|         195|   -7.715540|  -10.030762|    0.824000|    0.012017|
|         196|   -7.718697|  -10.029568|    0.824000|    0.012017|
|         197|   -7.722136|  -10.030263|    0.824000|    0.012017|
|         198|   -7.725895|  -10.032868|    0.824000|    0.012017|
|         199|   -7.729997|  -10.037386|    0.824000|    0.012017|
|         200|   -7.734448|  -10.043807|    0.824000|    0.012017|
|         201|   -7.739245|  -10.052103|    0.824000|    0.012017|
|         202|   -7.744370|  -10.062230|    0.824000|    0.012017|
|         203|   -7.749793|  -10.074113|    0.824000|    0.012017|
|         204|   -7.755475|  -10.087651|    0.824000|    0.012017|
|         205|   -7.761368|  -10.102696|    0.824000|    0.012017|
|         206|   -7.767419|  -10.119050|    0.824000|    0.012017|
|         207|   -7.773569|  -10.136444|    0.824000|    0.012017|
|         208|   -7.779759|  -10.154528|    0.824000|    0.012017|
|         209|   -7.785932|  -10.172854|    0.824000|    0.012017|
|         210|   -7.792035|  -10.190875|    0.824000|    0.012017|
|         211|   -7.798023|  -10.207949|    0.824000|    0.012017|
|         212|   -7.803862|  -10.223372|    0.824000|    0.012017|
|         213|   -7.809530|  -10.236436|    0.824000|    0.012017|
|         214|   -7.815022|  -10.246513|    0.824000|    0.012017|
|         215|   -7.820345|  -10.253153|    0.824000|    0.012017|
|         216|   -7.825526|  -10.256157|    0.824000|    0.012017|
|         217|   -7.830604|  -10.255621|    0.824000|    0.012017|
|         218|   -7.835633|  -10.251904|    0.824000|    0.012017|
|         219|   -7.840677|  -10.245564|    0.824000|    0.012017|
|         220|   -7.845811|  -10.237258|    0.824000|    0.012017|
|         221|   -7.851113|  -10.227658|    0.824000|    0.012017|
|         222|   -7.856666|  -10.217382|    0.824000|    0.012017|
|         223|   -7.862552|  -10.206958|    0.824000|    0.012017|
|         224|   -7.868851|  -10.196813|    0.824000|    0.012017|
|         225|   -7.875641|  -10.187275|    0.824000|    0.012017|
|         226|   -7.882990|  -10.178583|    0.824000|    0.012017|
|         227|   -7.890963|  -10.170902|    0.824000|    0.012017|
|         228|   -7.899614|  -10.164338|    0.824000|    0.012017|
|         229|   -7.908986|  -10.158950|    0.824000|    0.012017|
|         230|   -7.919113|  -10.154760|    0.824000|    0.012017|
|         231|   -7.930016|  -10.151761|    0.824000|    0.012017|
|         232|   -7.941704|  -10.149922|    0.824000|    0.012017|
|         233|   -7.954166|  -10.149193|    0.824000|    0.012017|
|         234|   -7.967379|  -10.149508|    0.824000|    0.012017|
|         235|   -7.981295|  -10.150786|    0.824000|    0.012017|
|         236|   -7.995845|  -10.152935|    0.824000|    0.012017|
|         237|   -8.010932|  -10.155852|    0.824000|    0.012017|
|         238|   -8.026429|  -10.159422|    0.824000|    0.012017|
|         239|   -8.042175|  -10.163526|    0.824000|    0.012017|
|         240|   -8.057972|  -10.168035|    0.824000|    0.012017|
|         241|   -8.073583|  -10.172820|    0.824000|    0.012017|
|         242|   -8.088740|  -10.177751|    0.824000|    0.012017|
|         243|   -8.103143|  -10.182703|    0.824000|    0.012017|
|         244|   -8.116478|  -10.187559|    0.824000|    0.012017|
|         245|   -8.128436|  -10.192217|    0.824000|    0.012017|
|         246|   -8.138731|  -10.196591|    0.824000|    0.012017|
|         247|   -8.147132|  -10.200617|    0.824000|    0.012017|
|         248|   -8.153486|  -10.204253|    0.824000|    0.012017|
|         249|   -8.157734|  -10.207482|    0.824000|    0.012017|
|         250|   -8.159921|  -10.210308|    0.824000|    0.012017|
|         251|   -8.160190|  -10.212758|    0.824000|    0.012017|
|         252|   -8.158761|  -10.214871|    0.824000|    0.012017|
|         253|   -8.155916|  -10.216700|    0.824000|    0.012017|
|         254|   -8.151965|  -10.218302|    0.824000|    0.012017|
|         255|   -8.147224|  -10.219732|    0.824000|    0.012017|
|         256|   -8.141999|  -10.221043|    0.824000|    0.012017|
|         257|   -8.136567|  -10.222276|    0.824000|    0.012017|
|         258|   -8.131174|  -10.223463|    0.824000|    0.012017|
|         259|   -8.126029|  -10.224620|    0.824000|    0.012017|
|         260|   -8.121306|  -10.225747|    0.824000|    0.012017|
|         261|   -8.117147|  -10.226833|    0.824000|    0.012017|
|         262|   -8.113661|  -10.227852|    0.824000|    0.012017|
|         263|   -8.110935|  -10.228771|    0.824000|    0.012017|
|         264|   -8.109033|  -10.229551|    0.824000|    0.012017|
|         265|   -8.108000|  -10.230151|    0.824000|    0.012017|
|         266|   -8.107866|  -10.230535|    0.824000|    0.012017|
|         267|   -8.108647|  -10.230673|    0.824000|    0.012017|
|         268|   -8.110348|  -10.230551|    0.824000|    0.012017|
|         269|   -8.112963|  -10.230169|    0.824000|    0.012017|
|         270|   -8.116477|  -10.229544|    0.824000|    0.012017|
|         271|   -8.120865|  -10.228715|    0.824000|    0.012017|
|         272|   -8.126094|  -10.227734|    0.824000|    0.012017|
|         273|   -8.132122|  -10.226672|    0.824000|    0.012017|
|         274|   -8.138897|  -10.225609|    0.824000|    0.012017|
|         275|   -8.146354|  -10.224635|    0.824000|    0.012017|
|         276|   -8.154422|  -10.223840|    0.824000|    0.012017|
|         277|   -8.163015|  -10.223317|    0.824000|    0.012017|
|         278|   -8.172034|  -10.223148|    0.824000|    0.012017|
|         279|   -8.181370|  -10.223408|    0.824000|    0.012017|
|         280|   -8.190900|  -10.224158|    0.824000|    0.012017|
|         281|   -8.200490|  -10.225445|    0.824000|    0.012017|
|         282|   -8.209996|  -10.227296|    0.824000|    0.012017|
|         283|   -8.219268|  -10.229718|    0.824000|    0.012017|
|         284|   -8.228153|  -10.232699|    0.824000|    0.012017|
|         285|   -8.236499|  -10.236201|    0.824000|    0.012017|
|         286|   -8.244166|  -10.240170|    0.824000|    0.012017|
|         287|   -8.251029|  -10.244527|    0.824000|    0.012017|
|         288|   -8.256986|  -10.249174|    0.824000|    0.012017|
|         289|   -8.261962|  -10.253999|    0.824000|    0.012017|
|         290|   -8.265917|  -10.258874|    0.824000|    0.012017|
|         291|   -8.268849|  -10.263666|    0.824000|    0.012017|
|         292|   -8.270786|  -10.268244|    0.824000|    0.012017|
|         293|   -8.271791|  -10.272482|    0.824000|    0.012017|
|         294|   -8.271956|  -10.276271|    0.824000|    0.012017|
|         295|   -8.271391|  -10.279526|    0.824000|    0.012017|
|         296|   -8.270220|  -10.282192|    0.824000|    0.012017|
|         297|   -8.268576|  -10.284247|    0.824000|    0.012017|
|         298|   -8.266591|  -10.285705|    0.824000|    0.012017|
|         299|   -8.264392|  -10.286614|    0.824000|    0.012017|
|         300|   -8.262098|  -10.287048|    0.824000|    0.012017|
|         301|   -8.259818|  -10.287107|    0.824000|    0.012017|
|         302|   -8.257646|  -10.286899|    0.824000|    0.012017|
|         303|   -8.255664|  -10.286543|    0.824000|    0.012017|
|         304|   -8.253938|  -10.286153|    0.824000|    0.012017|
|         305|   -8.252524|  -10.285833|    0.824000|    0.012017|
|         306|   -8.251462|  -10.285675|    0.824000|    0.012017|
|         307|   -8.250783|  -10.285754|    0.824000|    0.012017|
|         308|   -8.250505|  -10.286123|    0.824000|    0.012017|
|         309|   -8.250639|  -10.286814|    0.824000|    0.012017|
|         310|   -8.251184|  -10.287839|    0.824000|    0.012017|
|         311|   -8.252132|  -10.289190|    0.824000|    0.012017|
|         312|   -8.253470|  -10.290840|    0.824000|    0.012017|
|         313|   -8.255178|  -10.292748|    0.824000|    0.012017|
|         314|   -8.257228|  -10.294859|    0.824000|    0.012017|
|         315|   -8.259592|  -10.297108|    0.824000|    0.012017|
|         316|   -8.262236|  -10.299428|    0.824000|    0.012017|
|         317|   -8.265123|  -10.301748|    0.824000|    0.012017|
|         318|   -8.268216|  -10.304002|    0.824000|    0.012017|
|         319|   -8.271476|  -10.306132|    0.824000|    0.012017|
|         320|   -8.274864|  -10.308090|    0.824000|    0.012017|
|         321|   -8.278343|  -10.309842|    0.824000|    0.012017|
|         322|   -8.281879|  -10.311369|    0.824000|    0.012017|
|         323|   -8.285441|  -10.312668|    0.824000|    0.012017|
|         324|   -8.289000|  -10.313752|    0.824000|    0.012017|
|         325|   -8.292534|  -10.314646|    0.824000|    0.012017|
|         326|   -8.296025|  -10.315387|    0.824000|    0.012017|
|         327|   -8.299463|  -10.316021|    0.824000|    0.012017|
|         328|   -8.302843|  -10.316597|    0.824000|    0.012017|
|         329|   -8.306164|  -10.317167|    0.824000|    0.012017|
|         330|   -8.309434|  -10.317778|    0.824000|    0.012017|
|         331|   -8.312664|  -10.318478|    0.824000|    0.012017|
|         332|   -8.315870|  -10.319304|    0.824000|    0.012017|
|         333|   -8.319072|  -10.320287|    0.824000|    0.012017|
|         334|   -8.322293|  -10.321449|    0.824000|    0.012017|
|         335|   -8.325557|  -10.322804|    0.824000|    0.012017|
|         336|   -8.328888|  -10.324354|    0.824000|    0.012017|
|         337|   -8.332310|  -10.326094|    0.824000|    0.012017|
|         338|   -8.335845|  -10.328011|    0.824000|    0.012017|
|         339|   -8.339511|  -10.330083|    0.824000|    0.012017|
|         340|   -8.343322|  -10.332285|    0.824000|    0.012017|
|         341|   -8.347289|  -10.334583|    0.824000|    0.012017|
|         342|   -8.351413|  -10.336944|    0.824000|    0.012017|
|         343|   -8.355693|  -10.339329|    0.824000|    0.012017|
|         344|   -8.360115|  -10.341701|    0.824000|    0.012017|
|         345|   -8.364660|  -10.344025|    0.824000|    0.012017|
|         346|   -8.369301|  -10.346266|    0.824000|    0.012017|
|         347|   -8.373999|  -10.348393|    0.824000|    0.012017|
|         348|   -8.378708|  -10.350383|    0.824000|    0.012017|
|         349|   -8.383374|  -10.352215|    0.824000|    0.012017|
|         350|   -8.387935|  -10.353876|    0.824000|    0.012017|
|         351|   -8.392322|  -10.355363|    0.824000|    0.012017|
|         352|   -8.396463|  -10.356676|    0.824000|    0.012017|
|         353|   -8.400281|  -10.357825|    0.824000|    0.012017|
|         354|   -8.403702|  -10.358828|    0.824000|    0.012017|
|         355|   -8.406655|  -10.359706|    0.824000|    0.012017|
|         356|   -8.409073|  -10.360489|    0.824000|    0.012017|
|         357|   -8.410904|  -10.361211|    0.824000|    0.012017|
|         358|   -8.412107|  -10.361909|    0.824000|    0.012017|
|         359|   -8.412656|  -10.362623|    0.824000|    0.012017|
|         360|   -8.412542|  -10.363394|    0.824000|    0.012017|
|         361|   -8.411778|  -10.364265|    0.824000|    0.012017|
|         362|   -8.410390|  -10.365276|    0.824000|    0.012017|
|         363|   -8.408425|  -10.366465|    0.824000|    0.012017|
|         364|   -8.405941|  -10.367867|    0.824000|    0.012017|
|         365|   -8.403010|  -10.369513|    0.824000|    0.012017|
|         366|   -8.399713|  -10.371430|    0.824000|    0.012017|
|         367|   -8.396134|  -10.373638|    0.824000|    0.012017|
|         368|   -8.392362|  -10.376149|    0.824000|    0.012017|
|         369|   -8.388484|  -10.378972|    0.824000|    0.012017|
|         370|   -8.384585|  -10.382106|    0.824000|    0.012017|
|         371|   -8.380745|  -10.385544|    0.824000|    0.012017|
|         372|   -8.377038|  -10.389268|    0.824000|    0.012017|
|         373|   -8.373534|  -10.393258|    0.824000|    0.012017|
|         374|   -8.370291|  -10.397482|    0.824000|    0.012017|
|         375|   -8.367365|  -10.401904|    0.824000|    0.012017|
|         376|   -8.364800|  -10.406482|    0.824000|    0.012017|
|         377|   -8.362637|  -10.411167|    0.824000|    0.012017|
|         378|   -8.360907|  -10.415910|    0.824000|    0.012017|
|         379|   -8.359637|  -10.420656|    0.824000|    0.012017|
|         380|   -8.358848|  -10.425354|    0.824000|    0.012017|
|         381|   -8.358556|  -10.429951|    0.824000|    0.012017|
|         382|   -8.358769|  -10.434401|    0.824000|    0.012017|
|         383|   -8.359494|  -10.438661|    0.824000|    0.012017|
|         384|   -8.360733|  -10.442698|    0.824000|    0.012017|
|         385|   -8.362482|  -10.446486|    0.824000|    0.012017|
|         386|   -8.364737|  -10.450009|    0.824000|    0.012017|
|         387|   -8.367486|  -10.453263|    0.824000|    0.012017|
|         388|   -8.370717|  -10.456254|    0.824000|    0.012017|
|         389|   -8.374412|  -10.458996|    0.824000|    0.012017|
|         390|   -8.378551|  -10.461515|    0.824000|    0.012017|
|         391|   -8.383110|  -10.463841|    0.824000|    0.012017|
|         392|   -8.388061|  -10.466013|    0.824000|    0.012017|
|         393|   -8.393374|  -10.468070|    0.824000|    0.012017|
|         394|   -8.399013|  -10.470057|    0.824000|    0.012017|
|         395|   -8.404939|  -10.472016|    0.824000|    0.012017|
|         396|   -8.411111|  -10.473988|    0.824000|    0.012017|
|         397|   -8.417480|  -10.476013|    0.824000|    0.012017|
|         398|   -8.423998|  -10.478125|    0.824000|    0.012017|
|         399|   -8.430612|  -10.480354|    0.824000|    0.012017|
|         400|   -8.437265|  -10.482725|    0.824000|    0.012017|
|         401|   -8.443900|  -10.485258|    0.824000|    0.012017|
|         402|   -8.450456|  -10.487967|    0.824000|    0.012017|
|         403|   -8.456875|  -10.490861|    0.824000|    0.012017|
|         404|   -8.463097|  -10.493945|    0.824000|    0.012017|
|         405|   -8.469067|  -10.497219|    0.824000|    0.012017|
|         406|   -8.474731|  -10.500679|    0.824000|    0.012017|
|         407|   -8.480045|  -10.504319|    0.824000|    0.012017|
|         408|   -8.484967|  -10.508130|    0.824000|    0.012017|
|         409|   -8.489467|  -10.512103|    0.824000|    0.012017|
|         410|   -8.493521|  -10.516226|    0.824000|    0.012017|
|         411|   -8.497117|  -10.520488|    0.824000|    0.012017|
|         412|   -8.500254|  -10.524877|    0.824000|    0.012017|
|         413|   -8.502938|  -10.529385|    0.824000|    0.012017|
|         414|   -8.505187|  -10.534001|    0.824000|    0.012017|
|         415|   -8.507024|  -10.538719|    0.824000|    0.012017|
|         416|   -8.508482|  -10.543531|    0.824000|    0.012017|
|         417|   -8.509597|  -10.548435|    0.824000|    0.012017|
|         418|   -8.510407|  -10.553425|    0.824000|    0.012017|
|         419|   -8.510954|  -10.558502|    0.824000|    0.012017|
|         420|   -8.511277|  -10.563664|    0.824000|    0.012017|
|         421|   -8.511415|  -10.568911|    0.824000|    0.012017|
|         422|   -8.511404|  -10.574245|    0.824000|    0.012017|
|         423|   -8.511272|  -10.579666|    0.824000|    0.012017|
|         424|   -8.511046|  -10.585175|    0.824000|    0.012017|
|         425|   -8.510746|  -10.590773|    0.824000|    0.012017|
|         426|   -8.510384|  -10.596459|    0.824000|    0.012017|
|         427|   -8.509968|  -10.602232|    0.824000|    0.012017|
|         428|   -8.509500|  -10.608089|    0.824000|    0.012017|
|         429|   -8.508977|  -10.614027|    0.824000|    0.012017|
|         430|   -8.508389|  -10.620042|    0.824000|    0.012017|
|         431|   -8.507725|  -10.626127|    0.824000|    0.012017|
|         432|   -8.506969|  -10.632276|    0.824000|    0.012017|
|         433|   -8.506105|  -10.638481|    0.824000|    0.012017|
|         434|   -8.505114|  -10.644732|    0.824000|    0.012017|
|         435|   -8.503979|  -10.651022|    0.824000|    0.012017|
|         436|   -8.502686|  -10.657339|    0.824000|    0.012017|
|         437|   -8.501221|  -10.663674|    0.824000|    0.012017|
|         438|   -8.499576|  -10.670017|    0.824000|    0.012017|
|         439|   -8.497745|  -10.676357|    0.824000|    0.012017|
|         440|   -8.495730|  -10.682686|    0.824000|    0.012017|
|         441|   -8.493537|  -10.688993|    0.824000|    0.012017|
|         442|   -8.491178|  -10.695269|    0.824000|    0.012017|
|         443|   -8.488671|  -10.701507|    0.824000|    0.012017|
|         444|   -8.486037|  -10.707698|    0.824000|    0.012017|
|         445|   -8.483305|  -10.713834|    0.824000|    0.012017|
|         446|   -8.480507|  -10.719908|    0.824000|    0.012017|
|         447|   -8.477675|  -10.725914|    0.824000|    0.012017|
|         448|   -8.474848|  -10.731846|    0.824000|    0.012017|
|         449|   -8.472063|  -10.737697|    0.824000|    0.012017|
|         450|   -8.469359|  -10.743461|    0.824000|    0.012017|
|         451|   -8.466776|  -10.749134|    0.824000|    0.012017|
|         452|   -8.464351|  -10.754710|    0.824000|    0.012017|
|         453|   -8.462120|  -10.760183|    0.824000|    0.012017|
|         454|   -8.460117|  -10.765550|    0.824000|    0.012017|
|         455|   -8.458376|  -10.770805|    0.824000|    0.012017|
|         456|   -8.456924|  -10.775944|    0.824000|    0.012017|
|         457|   -8.455787|  -10.780964|    0.824000|    0.012017|
|         458|   -8.454990|  -10.785862|    0.824000|    0.012017|
|         459|   -8.454551|  -10.790635|    0.824000|    0.012017|
|         460|   -8.454485|  -10.795282|    0.824000|    0.012017|
|         461|   -8.454807|  -10.799803|    0.824000|    0.012017|
|         462|   -8.455525|  -10.804197|    0.824000|    0.012017|
|         463|   -8.456644|  -10.808468|    0.824000|    0.012017|
|         464|   -8.458168|  -10.812618|    0.824000|    0.012017|
|         465|   -8.460094|  -10.816652|    0.824000|    0.012017|
|         466|   -8.462418|  -10.820577|    0.824000|    0.012017|
|         467|   -8.465132|  -10.824400|    0.824000|    0.012017|
|         468|   -8.468225|  -10.828130|    0.824000|    0.012017|
|         469|   -8.471681|  -10.831779|    0.824000|    0.012017|
|         470|   -8.475481|  -10.835359|    0.824000|    0.012017|
|         471|   -8.479605|  -10.838884|    0.824000|    0.012017|
|         472|   -8.484028|  -10.842370|    0.824000|    0.012017|
|         473|   -8.488722|  -10.845833|    0.824000|    0.012017|
|         474|   -8.493655|  -10.849290|    0.824000|    0.012017|
|         475|   -8.498793|  -10.852761|    0.824000|    0.012017|
|         476|   -8.504100|  -10.856263|    0.824000|    0.012017|
|         477|   -8.509537|  -10.859817|    0.824000|    0.012017|
|         478|   -8.515063|  -10.863443|    0.824000|    0.012017|
|         479|   -8.520635|  -10.867159|    0.824000|    0.012017|
|         480|   -8.526209|  -10.870985|    0.824000|    0.012017|
|         481|   -8.531739|  -10.874939|    0.824000|    0.012017|
|         482|   -8.537183|  -10.879038|    0.824000|    0.012017|
|         483|   -8.542494|  -10.883297|    0.824000|    0.012017|
|         484|   -8.547632|  -10.887731|    0.824000|    0.012017|
|         485|   -8.552554|  -10.892349|    0.824000|    0.012017|
|         486|   -8.557222|  -10.897161|    0.824000|    0.012017|
|         487|   -8.561603|  -10.902171|    0.824000|    0.012017|
|         488|   -8.565665|  -10.907381|    0.824000|    0.012017|
|         489|   -8.569383|  -10.912790|    0.824000|    0.012017|
|         490|   -8.572735|  -10.918390|    0.824000|    0.012017|
|         491|   -8.575706|  -10.924170|    0.824000|    0.012017|
|         492|   -8.578286|  -10.930115|    0.824000|    0.012017|
|         493|   -8.580469|  -10.936203|    0.824000|    0.012017|
|         494|   -8.582257|  -10.942409|    0.824000|    0.012017|
|         495|   -8.583655|  -10.948702|    0.824000|    0.012017|
|         496|   -8.584675|  -10.955046|    0.824000|    0.012017|
|         497|   -8.585331|  -10.961401|    0.824000|    0.012017|
|         498|   -8.585642|  -10.967725|    0.824000|    0.012017|
|         499|   -8.585630|  -10.973971|    0.824000|    0.012017|
|         500|   -8.585321|  -10.980091|    0.824000|    0.012017|
|         501|   -8.584741|  -10.986038|    0.824000|    0.012017|
|         502|   -8.583918|  -10.991765|    0.824000|    0.012017|
|         503|   -8.582882|  -10.997228|    0.824000|    0.012017|
|         504|   -8.581663|  -11.002387|    0.824000|    0.012017|
|         505|   -8.580292|  -11.007208|    0.824000|    0.012017|
|         506|   -8.578799|  -11.011664|    0.824000|    0.012017|
|         507|   -8.577212|  -11.015736|    0.824000|    0.012017|
|         508|   -8.575560|  -11.019416|    0.824000|    0.012017|
|         509|   -8.573872|  -11.022703|    0.824000|    0.012017|
|         510|   -8.572173|  -11.025605|    0.824000|    0.012017|
|         511|   -8.570489|  -11.028139|    0.824000|    0.012017|
|         512|   -8.568844|  -11.030330|    0.824000|    0.012017|
|         513|   -8.567259|  -11.032209|    0.824000|    0.012017|
|         514|   -8.565755|  -11.033811|    0.824000|    0.012017|
|         515|   -8.564353|  -11.035175|    0.824000|    0.012017|
|         516|   -8.563071|  -11.036339|    0.824000|    0.012017|
|         517|   -8.561924|  -11.037343|    0.824000|    0.012017|
|         518|   -8.560929|  -11.038224|    0.824000|    0.012017|
|         519|   -8.560101|  -11.039018|    0.824000|    0.012017|
|         520|   -8.559452|  -11.039756|    0.824000|    0.012017|
|         521|   -8.558995|  -11.040466|    0.824000|    0.012017|
|         522|   -8.558742|  -11.041168|    0.824000|    0.012017|
|         523|   -8.558703|  -11.041883|    0.824000|    0.012017|
|         524|   -8.558890|  -11.042621|    0.824000|    0.012017|
|         525|   -8.559311|  -11.043394|    0.824000|    0.012017|
|         526|   -8.559976|  -11.044204|    0.824000|    0.012017|
|         527|   -8.560893|  -11.045055|    0.824000|    0.012017|
|         528|   -8.562071|  -11.045946|    0.824000|    0.012017|
|         529|   -8.563518|  -11.046874|    0.824000|    0.012017|
|         530|   -8.565240|  -11.047835|    0.824000|    0.012017|
|         531|   -8.567247|  -11.048827|    0.824000|    0.012017|
|         532|   -8.569543|  -11.049845|    0.824000|    0.012017|
|         533|   -8.572135|  -11.050889|    0.824000|    0.012017|
|         534|   -8.575028|  -11.051958|    0.824000|    0.012017|
|         535|   -8.578227|  -11.053054|    0.824000|    0.012017|
|         536|   -8.581735|  -11.054182|    0.824000|    0.012017|
|         537|   -8.585555|  -11.055350|    0.824000|    0.012017|
|         538|   -8.589687|  -11.056569|    0.824000|    0.012017|
|         539|   -8.594129|  -11.057850|    0.824000|    0.012017|
|         540|   -8.598880|  -11.059210|    0.824000|    0.012017|
|         541|   -8.603934|  -11.060668|    0.824000|    0.012017|
|         542|   -8.609283|  -11.062241|    0.824000|    0.012017|
|         543|   -8.614916|  -11.063953|    0.824000|    0.012017|
|         544|   -8.620819|  -11.065824|    0.824000|    0.012017|
|         545|   -8.626973|  -11.067877|    0.824000|    0.012017|
|         546|   -8.633357|  -11.070134|    0.824000|    0.012017|
|         547|   -8.639943|  -11.072617|    0.824000|    0.012017|
|         548|   -8.646702|  -11.075347|    0.824000|    0.012017|
|         549|   -8.653597|  -11.078343|    0.824000|    0.012017|
|         550|   -8.660587|  -11.081624|    0.824000|    0.012017|
|         551|   -8.667625|  -11.085204|    0.824000|    0.012017|
|         552|   -8.674664|  -11.089098|    0.824000|    0.012017|
|         553|   -8.681645|  -11.093317|    0.824000|    0.012017|
|         554|   -8.688513|  -11.097869|    0.824000|    0.012017|
|         555|   -8.695208|  -11.102761|    0.824000|    0.012017|
|         556|   -8.701667|  -11.107995|    0.824000|    0.012017|
|         557|   -8.707828|  -11.113572|    0.824000|    0.012017|
|         558|   -8.713633|  -11.119489|    0.824000|    0.012017|
|         559|   -8.719025|  -11.125740|    0.824000|    0.012017|
|         560|   -8.723957|  -11.132315|    0.824000|    0.012017|
|         561|   -8.728386|  -11.139203|    0.824000|    0.012017|
|         562|   -8.732281|  -11.146387|    0.824000|    0.012017|
|         563|   -8.735622|  -11.153849|    0.824000|    0.012017|
|         564|   -8.738398|  -11.161565|    0.824000|    0.012017|
|         565|   -8.740616|  -11.169508|    0.824000|    0.012017|
|         566|   -8.742291|  -11.177648|    0.824000|    0.012017|
|         567|   -8.743454|  -11.185951|    0.824000|    0.012017|
|         568|   -8.744142|  -11.194378|    0.824000|    0.012017|
|         569|   -8.744403|  -11.202887|    0.824000|    0.012017|
|         570|   -8.744294|  -11.211432|    0.824000|    0.012017|
|         571|   -8.743874|  -11.219963|    0.824000|    0.012017|
|         572|   -8.743209|  -11.228426|    0.824000|    0.012017|
|         573|   -8.742363|  -11.236766|    0.824000|    0.012017|
|         574|   -8.741402|  -11.244923|    0.824000|    0.012017|
|         575|   -8.740389|  -11.252839|    0.824000|    0.012017|
|         576|   -8.739384|  -11.260452|    0.824000|    0.012017|
|         577|   -8.738446|  -11.267702|    0.824000|    0.012017|
|         578|   -8.737626|  -11.274532|    0.824000|    0.012017|
|         579|   -8.736974|  -11.280887|    0.824000|    0.012017|
|         580|   -8.736533|  -11.286717|    0.824000|    0.012017|
|         581|   -8.736342|  -11.291980|    0.824000|    0.012017|
|         582|   -8.736433|  -11.296639|    0.824000|    0.012017|
|         583|   -8.736838|  -11.300669|    0.824000|    0.012017|
|         584|   -8.737580|  -11.304052|    0.824000|    0.012017|
|         585|   -8.738681|  -11.306782|    0.824000|    0.012017|
|         586|   -8.740158|  -11.308862|    0.824000|    0.012017|
|         587|   -8.742025|  -11.310306|    0.824000|    0.012017|
|         588|   -8.744293|  -11.311137|    0.824000|    0.012017|
|         589|   -8.746967|  -11.311385|    0.824000|    0.012017|
|         590|   -8.750053|  -11.311087|    0.824000|    0.012017|
|         591|   -8.753553|  -11.310286|    0.824000|    0.012017|
|         592|   -8.757466|  -11.309028|    0.824000|    0.012017|
|         593|   -8.761789|  -11.307361|    0.824000|    0.012017|
|         594|   -8.766516|  -11.305333|    0.824000|    0.012017|
|         595|   -8.771640|  -11.302991|    0.824000|    0.012017|
|         596|   -8.777150|  -11.300381|    0.824000|    0.012017|
|         597|   -8.783037|  -11.297545|    0.824000|    0.012017|
|         598|   -8.789284|  -11.294523|    0.824000|    0.012017|
|         599|   -8.795875|  -11.291350|    0.824000|    0.012017|
|         600|   -8.802792|  -11.288056|    0.824000|    0.012017|
|         601|   -8.810013|  -11.284667|    0.824000|    0.012017|
|         602|   -8.817515|  -11.281205|    0.824000|    0.012017|
|         603|   -8.825271|  -11.277687|    0.824000|    0.012017|
|         604|   -8.833253|  -11.274126|    0.824000|    0.012017|
|         605|   -8.841431|  -11.270532|    0.824000|    0.012017|
|         606|   -8.849768|  -11.266910|    0.824000|    0.012017|
|         607|   -8.858228|  -11.263264|    0.824000|    0.012017|
|         608|   -8.866774|  -11.259595|    0.824000|    0.012017|
|         609|   -8.875362|  -11.255900|    0.824000|    0.012017|
|         610|   -8.883949|  -11.252178|    0.824000|    0.012017|
|         611|   -8.892489|  -11.248423|    0.824000|    0.012017|
|         612|   -8.900931|  -11.244631|    0.824000|    0.012017|
|         613|   -8.909230|  -11.240798|    0.824000|    0.012017|
|         614|   -8.917335|  -11.236919|    0.824000|    0.012017|
|         615|   -8.925197|  -11.232990|    0.824000|    0.012017|
|         616|   -8.932768|  -11.229009|    0.824000|    0.012017|
|         617|   -8.940004|  -11.224974|    0.824000|    0.012017|
|         618|   -8.946860|  -11.220885|    0.824000|    0.012017|
|         619|   -8.953298|  -11.216743|    0.824000|    0.012017|
|         620|   -8.959283|  -11.212551|    0.824000|    0.012017|
|         621|   -8.964786|  -11.208315|    0.824000|    0.012017|
|         622|   -8.969788|  -11.204040|    0.824000|    0.012017|
|         623|   -8.974275|  -11.199735|    0.824000|    0.012017|
|         624|   -8.978237|  -11.195408|    0.824000|    0.012017|
|         625|   -8.981677|  -11.191071|    0.824000|    0.012017|
|         626|   -8.984604|  -11.186733|    0.824000|    0.012017|
|         627|   -8.987034|  -11.182408|    0.824000|    0.012017|
|         628|   -8.988989|  -11.178107|    0.824000|    0.012017|
|         629|   -8.990500|  -11.173844|    0.824000|    0.012017|
|         630|   -8.991601|  -11.169631|    0.824000|    0.012017|
|         631|   -8.992329|  -11.165480|    0.824000|    0.012017|
|         632|   -8.992729|  -11.161405|    0.824000|    0.012017|
|         633|   -8.992844|  -11.157415|    0.824000|    0.012017|
|         634|   -8.992721|  -11.153523|    0.824000|    0.012017|
|         635|   -8.992408|  -11.149737|    0.824000|    0.012017|
|         636|   -8.991951|  -11.146068|    0.824000|    0.012017|
|         637|   -8.991396|  -11.142522|    0.824000|    0.012017|
|         638|   -8.990787|  -11.139108|    0.824000|    0.012017|
|         639|   -8.990170|  -11.135830|    0.824000|    0.012017|
|         640|   -8.989584|  -11.132695|    0.824000|    0.012017|
|         641|   -8.989069|  -11.129705|    0.824000|    0.012017|
|         642|   -8.988659|  -11.126865|    0.824000|    0.012017|
|         643|   -8.988390|  -11.124176|    0.824000|    0.012017|
|         644|   -8.988291|  -11.121639|    0.824000|    0.012017|
|         645|   -8.988389|  -11.119255|    0.824000|    0.012017|
|         646|   -8.988709|  -11.117025|    0.824000|    0.012017|
|         647|   -8.989274|  -11.114947|    0.824000|    0.012017|
|         648|   -8.990099|  -11.113020|    0.824000|    0.012017|
|         649|   -8.991201|  -11.111243|    0.824000|    0.012017|
|         650|   -8.992594|  -11.109614|    0.824000|    0.012017|
|         651|   -8.994286|  -11.108131|    0.824000|    0.012017|
|         652|   -8.996281|  -11.106792|    0.824000|    0.012017|
|         653|   -8.998583|  -11.105595|    0.824000|    0.012017|
|         654|   -9.001192|  -11.104536|    0.824000|    0.012017|
|         655|   -9.004103|  -11.103614|    0.824000|    0.012017|
|         656|   -9.007310|  -11.102826|    0.824000|    0.012017|
|         657|   -9.010801|  -11.102169|    0.824000|    0.012017|
|         658|   -9.014560|  -11.101642|    0.824000|    0.012017|
|         659|   -9.018570|  -11.101243|    0.824000|    0.012017|
|         660|   -9.022810|  -11.100968|    0.824000|    0.012017|
|         661|   -9.027251|  -11.100816|    0.824000|    0.012017|
|         662|   -9.031869|  -11.100785|    0.824000|    0.012017|
|         663|   -9.036629|  -11.100873|    0.824000|    0.012017|
|         664|   -9.041494|  -11.101077|    0.824000|    0.012017|
|         665|   -9.046426|  -11.101397|    0.824000|    0.012017|
|         666|   -9.051385|  -11.101829|    0.824000|    0.012017|
|         667|   -9.056326|  -11.102372|    0.824000|    0.012017|
|         668|   -9.061209|  -11.103025|    0.824000|    0.012017|
|         669|   -9.065985|  -11.103784|    0.824000|    0.012017|
|         670|   -9.070609|  -11.104647|    0.824000|    0.012017|
|         671|   -9.075045|  -11.105613|    0.824000|    0.012017|
|         672|   -9.079248|  -11.106679|    0.824000|    0.012017|
|         673|   -9.083185|  -11.107842|    0.824000|    0.012017|
|         674|   -9.086822|  -11.109101|    0.824000|    0.012017|
|         675|   -9.090135|  -11.110452|    0.824000|    0.012017|
|         676|   -9.093104|  -11.111893|    0.824000|    0.012017|
|         677|   -9.095719|  -11.113420|    0.824000|    0.012017|
|         678|   -9.097975|  -11.115032|    0.824000|    0.012017|
|         679|   -9.099875|  -11.116725|    0.824000|    0.012017|
|         680|   -9.101429|  -11.118496|    0.824000|    0.012017|
|         681|   -9.102658|  -11.120342|    0.824000|    0.012017|
|         682|   -9.103581|  -11.122260|    0.824000|    0.012017|
|         683|   -9.104227|  -11.124248|    0.824000|    0.012017|
|         684|   -9.104632|  -11.126302|    0.824000|    0.012017|
|         685|   -9.104831|  -11.128420|    0.824000|    0.012017|
|         686|   -9.104862|  -11.130598|    0.824000|    0.012017|
|         687|   -9.104765|  -11.132835|    0.824000|    0.012017|
|         688|   -9.104581|  -11.135127|    0.824000|    0.012017|
|         689|   -9.104346|  -11.137472|    0.824000|    0.012017|
|         690|   -9.104101|  -11.139868|    0.824000|    0.012017|
|         691|   -9.103879|  -11.142314|    0.824000|    0.012017|
|         692|   -9.103713|  -11.144806|    0.824000|    0.012017|
|         693|   -9.103634|  -11.147343|    0.824000|    0.012017|
|         694|   -9.103667|  -11.149924|    0.824000|    0.012017|
|         695|   -9.103838|  -11.152547|    0.824000|    0.012017|
|         696|   -9.104166|  -11.155210|    0.824000|    0.012017|
|         697|   -9.104668|  -11.157913|    0.824000|    0.012017|
|         698|   -9.105357|  -11.160654|    0.824000|    0.012017|
|         699|   -9.106241|  -11.163432|    0.824000|    0.012017|
|         700|   -9.107329|  -11.166246|    0.824000|    0.012017|
|         701|   -9.108623|  -11.169094|    0.824000|    0.012017|
|         702|   -9.110125|  -11.171975|    0.824000|    0.012017|
|         703|   -9.111830|  -11.174889|    0.824000|    0.012017|
|         704|   -9.113736|  -11.177833|    0.824000|    0.012017|
|         705|   -9.115831|  -11.180806|    0.824000|    0.012017|
|         706|   -9.118107|  -11.183806|    0.824000|    0.012017|
|         707|   -9.120550|  -11.186831|    0.824000|    0.012017|
|         708|   -9.123142|  -11.189877|    0.824000|    0.012017|
|         709|   -9.125868|  -11.192941|    0.824000|    0.012017|
|         710|   -9.128708|  -11.196021|    0.824000|    0.012017|
|         711|   -9.131638|  -11.199112|    0.824000|    0.012017|
|         712|   -9.134636|  -11.202210|    0.824000|    0.012017|
|         713|   -9.137678|  -11.205308|    0.824000|    0.012017|
|         714|   -9.140732|  -11.208402|    0.824000|    0.012017|
|         715|   -9.143776|  -11.211486|    0.824000|    0.012017|
|         716|   -9.146779|  -11.214551|    0.824000|    0.012017|
|         717|   -9.149714|  -11.217590|    0.824000|    0.012017|
|         718|   -9.152549|  -11.220596|    0.824000|    0.012017|
|         719|   -9.155259|  -11.223559|    0.824000|    0.012017|
|         720|   -9.157818|  -11.226470|    0.824000|    0.012017|
|         721|   -9.160197|  -11.229319|    0.824000|    0.012017|
|         722|   -9.162376|  -11.232097|    0.824000|    0.012017|
|         723|   -9.164332|  -11.234792|    0.824000|    0.012017|
|         724|   -9.166047|  -11.237394|    0.824000|    0.012017|
|         725|   -9.167507|  -11.239893|    0.824000|    0.012017|
|         726|   -9.168699|  -11.242276|    0.824000|    0.012017|
|         727|   -9.169621|  -11.244534|    0.824000|    0.012017|
|         728|   -9.170267|  -11.246657|    0.824000|    0.012017|
|         729|   -9.170639|  -11.248633|    0.824000|    0.012017|
|         730|   -9.170742|  -11.250454|    0.824000|    0.012017|
|         731|   -9.170588|  -11.252110|    0.824000|    0.012017|
|         732|   -9.170190|  -11.253593|    0.824000|    0.012017|
|         733|   -9.169568|  -11.254896|    0.824000|    0.012017|
|         734|   -9.168740|  -11.256013|    0.824000|    0.012017|
|         735|   -9.167731|  -11.256937|    0.824000|    0.012017|
|         736|   -9.166568|  -11.257665|    0.824000|    0.012017|
|         737|   -9.165274|  -11.258194|    0.824000|    0.012017|
|         738|   -9.163883|  -11.258521|    0.824000|    0.012017|
|         739|   -9.162423|  -11.258646|    0.824000|    0.012017|
|         740|   -9.160925|  -11.258570|    0.824000|    0.012017|
|         741|   -9.159416|  -11.258294|    0.824000|    0.012017|
|         742|   -9.157929|  -11.257821|    0.824000|    0.012017|
|         743|   -9.156491|  -11.257155|    0.824000|    0.012017|
|         744|   -9.155130|  -11.256301|    0.824000|    0.012017|
|         745|   -9.153873|  -11.255265|    0.824000|    0.012017|
|         746|   -9.152743|  -11.254054|    0.824000|    0.012017|
|         747|   -9.151766|  -11.252677|    0.824000|    0.012017|
|         748|   -9.150962|  -11.251140|    0.824000|    0.012017|
|         749|   -9.150351|  -11.249453|    0.824000|    0.012017|
|         750|   -9.149952|  -11.247626|    0.824000|    0.012017|
|         751|   -9.149781|  -11.245669|    0.824000|    0.012017|
|         752|   -9.149852|  -11.243592|    0.824000|    0.012017|
|         753|   -9.150178|  -11.241404|    0.824000|    0.012017|
|         754|   -9.150766|  -11.239117|    0.824000|    0.012017|
|         755|   -9.151627|  -11.236742|    0.824000|    0.012017|
|         756|   -9.152768|  -11.234289|    0.824000|    0.012017|
|         757|   -9.154193|  -11.231768|    0.824000|    0.012017|
|         758|   -9.155901|  -11.229190|    0.824000|    0.012017|
|         759|   -9.157897|  -11.226565|    0.824000|    0.012017|
|         760|   -9.160175|  -11.223904|    0.824000|    0.012017|
|         761|   -9.162732|  -11.221215|    0.824000|    0.012017|
|         762|   -9.165562|  -11.218508|    0.824000|    0.012017|
|         763|   -9.168655|  -11.215793|    0.824000|    0.012017|
|         764|   -9.171997|  -11.213078|    0.824000|    0.012017|
|         765|   -9.175578|  -11.210371|    0.824000|    0.012017|
|         766|   -9.179380|  -11.207680|    0.824000|    0.012017|
|         767|   -9.183380|  -11.205013|    0.824000|    0.012017|
|         768|   -9.187559|  -11.202377|    0.824000|    0.012017|
|         769|   -9.191890|  -11.199779|    0.824000|    0.012017|
|         770|   -9.196347|  -11.197224|    0.824000|    0.012017|
|         771|   -9.200896|  -11.194720|    0.824000|    0.012017|
|         772|   -9.205507|  -11.192271|    0.824000|    0.012017|
|         773|   -9.210147|  -11.189882|    0.824000|    0.012017|
|         774|   -9.214769|  -11.187558|    0.824000|    0.012017|
|         775|   -9.219346|  -11.185303|    0.824000|    0.012017|
|         776|   -9.223830|  -11.183122|    0.824000|    0.012017|
|         777|   -9.228186|  -11.181017|    0.824000|    0.012017|
|         778|   -9.232368|  -11.178992|    0.824000|    0.012017|
|         779|   -9.236344|  -11.177050|    0.824000|    0.012017|
|         780|   -9.240072|  -11.175193|    0.824000|    0.012017|
|         781|   -9.243517|  -11.173424|    0.824000|    0.012017|
|         782|   -9.246652|  -11.171744|    0.824000|    0.012017|
|         783|   -9.249448|  -11.170155|    0.824000|    0.012017|
|         784|   -9.251890|  -11.168658|    0.824000|    0.012017|
|         785|   -9.253961|  -11.167255|    0.824000|    0.012017|
|         786|   -9.255651|  -11.165947|    0.824000|    0.012017|
|         787|   -9.256961|  -11.164734|    0.824000|    0.012017|
|         788|   -9.257897|  -11.163617|    0.824000|    0.012017|
|         789|   -9.258471|  -11.162597|    0.824000|    0.012017|
|         790|   -9.258704|  -11.161673|    0.824000|    0.012017|
|         791|   -9.258618|  -11.160847|    0.824000|    0.012017|
|         792|   -9.258240|  -11.160117|    0.824000|    0.012017|
|         793|   -9.257606|  -11.159484|    0.824000|    0.012017|
|         794|   -9.256752|  -11.158948|    0.824000|    0.012017|
|         795|   -9.255716|  -11.158509|    0.824000|    0.012017|
|         796|   -9.254537|  -11.158166|    0.824000|    0.012017|
|         797|   -9.253259|  -11.157919|    0.824000|    0.012017|
|         798|   -9.251921|  -11.157768|    0.824000|    0.012017|
|         799|   -9.250561|  -11.157712|    0.824000|    0.012017|
|         800|   -9.249220|  -11.157751|    0.824000|    0.012017|
|         801|   -9.247935|  -11.157884|    0.824000|    0.012017|
|         802|   -9.246738|  -11.158111|    0.824000|    0.012017|
|         803|   -9.245666|  -11.158432|    0.824000|    0.012017|
|         804|   -9.244749|  -11.158845|    0.824000|    0.012017|
|         805|   -9.244010|  -11.159351|    0.824000|    0.012017|
|         806|   -9.243477|  -11.159948|    0.824000|    0.012017|
|         807|   -9.243178|  -11.160636|    0.824000|    0.012017|
|         808|   -9.243127|  -11.161414|    0.824000|    0.012017|
|         809|   -9.243346|  -11.162282|    0.824000|    0.012017|
|         810|   -9.243848|  -11.163239|    0.824000|    0.012017|
|         811|   -9.244650|  -11.164283|    0.824000|    0.012017|
|         812|   -9.245767|  -11.165415|    0.824000|    0.012017|
|         813|   -9.247203|  -11.166633|    0.824000|    0.012017|
|         814|   -9.248969|  -11.167936|    0.824000|    0.012017|
|         815|   -9.251072|  -11.169323|    0.824000|    0.012017|
|         816|   -9.253516|  -11.170793|    0.824000|    0.012017|
|         817|   -9.256305|  -11.172345|    0.824000|    0.012017|
|         818|   -9.259442|  -11.173977|    0.824000|    0.012017|
|         819|   -9.262926|  -11.175689|    0.824000|    0.012017|
|         820|   -9.266758|  -11.177478|    0.824000|    0.012017|
|         821|   -9.270935|  -11.179343|    0.824000|    0.012017|
|         822|   -9.275448|  -11.181283|    0.824000|    0.012017|
|         823|   -9.280298|  -11.183296|    0.824000|    0.012017|
|         824|   -9.285474|  -11.185379|    0.824000|    0.012017|
|         825|   -9.290969|  -11.187533|    0.824000|    0.012017|
|         826|   -9.296773|  -11.189754|    0.824000|    0.012017|
|         827|   -9.302872|  -11.192040|    0.824000|    0.012017|
|         828|   -9.309248|  -11.194390|    0.824000|    0.012017|
|         829|   -9.315891|  -11.196802|    0.824000|    0.012017|
|         830|   -9.322780|  -11.199274|    0.824000|    0.012017|
|         831|   -9.329892|  -11.201804|    0.824000|    0.012017|
|         832|   -9.337205|  -11.204389|    0.824000|    0.012017|
|         833|   -9.344693|  -11.207028|    0.824000|    0.012017|
|         834|   -9.352331|  -11.209718|    0.824000|    0.012017|
|         835|   -9.360082|  -11.212458|    0.824000|    0.012017|
|         836|   -9.367915|  -11.215246|    0.824000|    0.012017|
|         837|   -9.375797|  -11.218080|    0.824000|    0.012017|
|         838|   -9.383688|  -11.220958|    0.824000|    0.012017|
|         839|   -9.391551|  -11.223877|    0.824000|    0.012017|
|         840|   -9.399337|  -11.226836|    0.824000|    0.012017|
|         841|   -9.407013|  -11.229834|    0.824000|    0.012017|
|         842|   -9.414534|  -11.232868|    0.824000|    0.012017|
|         843|   -9.421858|  -11.235936|    0.824000|    0.012017|
|         844|   -9.428939|  -11.239037|    0.824000|    0.012017|
|         845|   -9.435752|  -11.242169|    0.824000|    0.012017|
|         846|   -9.442249|  -11.245329|    0.824000|    0.012017|
|         847|   -9.448400|  -11.248518|    0.824000|    0.012017|
|         848|   -9.454184|  -11.251731|    0.824000|    0.012017|
|         849|   -9.459583|  -11.254968|    0.824000|    0.012017|
|         850|   -9.464573|  -11.258226|    0.824000|    0.012017|
|         851|   -9.469151|  -11.261504|    0.824000|    0.012017|
|         852|   -9.473318|  -11.264800|    0.824000|    0.012017|
|         853|   -9.477084|  -11.268111|    0.824000|    0.012017|
|         854|   -9.480460|  -11.271435|    0.824000|    0.012017|
|         855|   -9.483465|  -11.274769|    0.824000|    0.012017|
|         856|   -9.486130|  -11.278113|    0.824000|    0.012017|
|         857|   -9.488482|  -11.281461|    0.824000|    0.012017|
|         858|   -9.490562|  -11.284814|    0.824000|    0.012017|
|         859|   -9.492408|  -11.288166|    0.824000|    0.012017|
|         860|   -9.494056|  -11.291516|    0.824000|    0.012017|
|         861|   -9.495553|  -11.294859|    0.824000|    0.012017|
|         862|   -9.496943|  -11.298195|    0.824000|    0.012017|
|         863|   -9.498269|  -11.301517|    0.824000|    0.012017|
|         864|   -9.499571|  -11.304825|    0.824000|    0.012017|
|         865|   -9.500889|  -11.308113|    0.824000|    0.012017|
|         866|   -9.502256|  -11.311378|    0.824000|    0.012017|
|         867|   -9.503714|  -11.314617|    0.824000|    0.012017|
|         868|   -9.505288|  -11.317825|    0.824000|    0.012017|
|         869|   -9.507008|  -11.321000|    0.824000|    0.012017|
|         870|   -9.508898|  -11.324136|    0.824000|    0.012017|
|         871|   -9.510986|  -11.327230|    0.824000|    0.012017|
|         872|   -9.513285|  -11.330279|    0.824000|    0.012017|
|         873|   -9.515807|  -11.333278|    0.824000|    0.012017|
|         874|   -9.518572|  -11.336223|    0.824000|    0.012017|
|         875|   -9.521575|  -11.339111|    0.824000|    0.012017|
|         876|   -9.524827|  -11.341938|    0.824000|    0.012017|
|         877|   -9.528330|  -11.344701|    0.824000|    0.012017|
|         878|   -9.532077|  -11.347396|    0.824000|    0.012017|
|         879|   -9.536065|  -11.350021|    0.824000|    0.012017|
|         880|   -9.540282|  -11.352571|    0.824000|    0.012017|
|         881|   -9.544715|  -11.355045|    0.824000|    0.012017|
|         882|   -9.549343|  -11.357440|    0.824000|    0.012017|
|         883|   -9.554154|  -11.359753|    0.824000|    0.012017|
|         884|   -9.559120|  -11.361983|    0.824000|    0.012017|
|         885|   -9.564217|  -11.364128|    0.824000|    0.012017|
|         886|   -9.569416|  -11.366187|    0.824000|    0.012017|
|         887|   -9.574683|  -11.368158|    0.824000|    0.012017|
|         888|   -9.579990|  -11.370042|    0.824000|    0.012017|
|         889|   -9.585290|  -11.371838|    0.824000|    0.012017|
|         890|   -9.590551|  -11.373545|    0.824000|    0.012017|
|         891|   -9.595740|  -11.375165|    0.824000|    0.012017|
|         892|   -9.600807|  -11.376698|    0.824000|    0.012017|
|         893|   -9.605718|  -11.378145|    0.824000|    0.012017|
|         894|   -9.610437|  -11.379509|    0.824000|    0.012017|
|         895|   -9.614926|  -11.380789|    0.824000|    0.012017|
|         896|   -9.619151|  -11.381989|    0.824000|    0.012017|
|         897|   -9.623078|  -11.383112|    0.824000|    0.012017|
|         898|   -9.626687|  -11.384159|    0.824000|    0.012017|
|         899|   -9.629953|  -11.385133|    0.824000|    0.012017|
|         900|   -9.632863|  -11.386038|    0.824000|    0.012017|
|         901|   -9.635408|  -11.386877|    0.824000|    0.012017|
|         902|   -9.637574|  -11.387653|    0.824000|    0.012017|
|         903|   -9.639372|  -11.388370|    0.824000|    0.012017|
|         904|   -9.640802|  -11.389031|    0.824000|    0.012017|
|         905|   -9.641879|  -11.389641|    0.824000|    0.012017|
|         906|   -9.642618|  -11.390202|    0.824000|    0.012017|
|         907|   -9.643041|  -11.390719|    0.824000|    0.012017|
|         908|   -9.643168|  -11.391195|    0.824000|    0.012017|
|         909|   -9.643024|  -11.391633|    0.824000|    0.012017|
|         910|   -9.642646|  -11.392038|    0.824000|    0.012017|
|         911|   -9.642051|  -11.392413|    0.824000|    0.012017|
|         912|   -9.641271|  -11.392761|    0.824000|    0.012017|
|         913|   -9.640335|  -11.393084|    0.824000|    0.012017|
|         914|   -9.639272|  -11.393387|    0.824000|    0.012017|
|         915|   -9.638105|  -11.393671|    0.824000|    0.012017|
|         916|   -9.636854|  -11.393939|    0.824000|    0.012017|
|         917|   -9.635542|  -11.394193|    0.824000|    0.012017|
|         918|   -9.634193|  -11.394436|    0.824000|    0.012017|
|         919|   -9.632815|  -11.394669|    0.824000|    0.012017|
|         920|   -9.631430|  -11.394894|    0.824000|    0.012017|
|         921|   -9.630042|  -11.395112|    0.824000|    0.012017|
|         922|   -9.628666|  -11.395324|    0.824000|    0.012017|
|         923|   -9.627300|  -11.395530|    0.824000|    0.012017|
|         924|   -9.625956|  -11.395733|    0.824000|    0.012017|
|         925|   -9.624634|  -11.395931|    0.824000|    0.012017|
|         926|   -9.623332|  -11.396126|    0.824000|    0.012017|
|         927|   -9.622053|  -11.396317|    0.824000|    0.012017|
|         928|   -9.620791|  -11.396504|    0.824000|    0.012017|
|         929|   -9.619545|  -11.396687|    0.824000|    0.012017|
|         930|   -9.618311|  -11.396865|    0.824000|    0.012017|
|         931|   -9.617080|  -11.397038|    0.824000|    0.012017|
|         932|   -9.615847|  -11.397204|    0.824000|    0.012017|
|         933|   -9.614609|  -11.397364|    0.824000|    0.012017|
|         934|   -9.613357|  -11.397517|    0.824000|    0.012017|
|         935|   -9.612089|  -11.397661|    0.824000|    0.012017|
|         936|   -9.610796|  -11.397796|    0.824000|    0.012017|
|         937|   -9.609475|  -11.397920|    0.824000|    0.012017|
|         938|   -9.608121|  -11.398034|    0.824000|    0.012017|
|         939|   -9.606734|  -11.398136|    0.824000|    0.012017|
|         940|   -9.605306|  -11.398225|    0.824000|    0.012017|
|         941|   -9.603838|  -11.398301|    0.824000|    0.012017|
|         942|   -9.602332|  -11.398363|    0.824000|    0.012017|
|         943|   -9.600787|  -11.398410|    0.824000|    0.012017|
|         944|   -9.599202|  -11.398443|    0.824000|    0.012017|
|         945|   -9.597579|  -11.398460|    0.824000|    0.012017|
|         946|   -9.595922|  -11.398463|    0.824000|    0.012017|
|         947|   -9.594239|  -11.398450|    0.824000|    0.012017|
|         948|   -9.592530|  -11.398422|    0.824000|    0.012017|
|         949|   -9.590799|  -11.398379|    0.824000|    0.012017|
|         950|   -9.589054|  -11.398322|    0.824000|    0.012017|
|         951|   -9.587298|  -11.398250|    0.824000|    0.012017|
|         952|   -9.585538|  -11.398166|    0.824000|    0.012017|
|         953|   -9.583781|  -11.398069|    0.824000|    0.012017|
|         954|   -9.582031|  -11.397961|    0.824000|    0.012017|
|         955|   -9.580293|  -11.397842|    0.824000|    0.012017|
|         956|   -9.578574|  -11.397714|    0.824000|    0.012017|
|         957|   -9.576874|  -11.397578|    0.824000|    0.012017|
|         958|   -9.575196|  -11.397435|    0.824000|    0.012017|
|         959|   -9.573547|  -11.397287|    0.824000|    0.012017|
|         960|   -9.571930|  -11.397135|    0.824000|    0.012017|
|         961|   -9.570341|  -11.396980|    0.824000|    0.012017|
|         962|   -9.568784|  -11.396824|    0.824000|    0.012017|
|         963|   -9.567257|  -11.396669|    0.824000|    0.012017|
|         964|   -9.565758|  -11.396516|    0.824000|    0.012017|
|         965|   -9.564289|  -11.396367|    0.824000|    0.012017|
|         966|   -9.562840|  -11.396223|    0.824000|    0.012017|
|         967|   -9.561414|  -11.396086|    0.824000|    0.012017|
|         968|   -9.560000|  -11.395957|    0.824000|    0.012017|
|         969|   -9.558600|  -11.395838|    0.824000|    0.012017|
|         970|   -9.557198|  -11.395730|    0.824000|    0.012017|
|         971|   -9.555796|  -11.395635|    0.824000|    0.012017|
|         972|   -9.554387|  -11.395554|    0.824000|    0.012017|
|         973|   -9.552965|  -11.395489|    0.824000|    0.012017|
|         974|   -9.551518|  -11.395440|    0.824000|    0.012017|
|         975|   -9.550049|  -11.395409|    0.824000|    0.012017|
|         976|   -9.548544|  -11.395397|    0.824000|    0.012017|
|         977|   -9.546997|  -11.395405|    0.824000|    0.012017|
|         978|   -9.545409|  -11.395435|    0.824000|    0.012017|
|         979|   -9.543776|  -11.395486|    0.824000|    0.012017|
|         980|   -9.542090|  -11.395561|    0.824000|    0.012017|
|         981|   -9.540355|  -11.395660|    0.824000|    0.012017|
|         982|   -9.538567|  -11.395783|    0.824000|    0.012017|
|         983|   -9.536729|  -11.395933|    0.824000|    0.012017|
|         984|   -9.534843|  -11.396108|    0.824000|    0.012017|
|         985|   -9.532908|  -11.396311|    0.824000|    0.012017|
|         986|   -9.530937|  -11.396541|    0.824000|    0.012017|
|         987|   -9.528929|  -11.396800|    0.824000|    0.012017|
|         988|   -9.526897|  -11.397087|    0.824000|    0.012017|
|         989|   -9.524848|  -11.397404|    0.824000|    0.012017|
|         990|   -9.522795|  -11.397750|    0.824000|    0.012017|
[...]
|        4645|   -5.999188|   -7.957590|    0.824235|    0.012021|
|        4646|   -6.006990|   -7.961511|    0.824235|    0.012021|
|        4647|   -6.014699|   -7.965355|    0.824236|    0.012021|
|        4648|   -6.022247|   -7.969153|    0.824236|    0.012021|
|        4649|   -6.029570|   -7.972936|    0.824236|    0.012021|
|        4650|   -6.036606|   -7.976730|    0.824236|    0.012021|
|        4651|   -6.043300|   -7.980561|    0.824236|    0.012020|
|        4652|   -6.049603|   -7.984448|    0.824236|    0.012020|
|        4653|   -6.055477|   -7.988409|    0.824236|    0.012020|
|        4654|   -6.060895|   -7.992460|    0.824236|    0.012020|
|        4655|   -6.065838|   -7.996610|    0.824237|    0.012020|
|        4656|   -6.070304|   -8.000868|    0.824237|    0.012020|
|        4657|   -6.074299|   -8.005241|    0.824237|    0.012020|
|        4658|   -6.077842|   -8.009732|    0.824237|    0.012020|
|        4659|   -6.080964|   -8.014343|    0.824237|    0.012020|
|        4660|   -6.083702|   -8.019075|    0.824237|    0.012020|
|        4661|   -6.086104|   -8.023930|    0.824237|    0.012020|
|        4662|   -6.088220|   -8.028907|    0.824237|    0.012020|
|        4663|   -6.090106|   -8.034006|    0.824237|    0.012020|
|        4664|   -6.091818|   -8.039228|    0.824237|    0.012020|
|        4665|   -6.093415|   -8.044575|    0.824238|    0.012020|
|        4666|   -6.094951|   -8.050049|    0.824238|    0.012020|
|        4667|   -6.096479|   -8.055652|    0.824238|    0.012020|
|        4668|   -6.098048|   -8.061388|    0.824238|    0.012020|
|        4669|   -6.099702|   -8.067261|    0.824238|    0.012020|
|        4670|   -6.101479|   -8.073274|    0.824238|    0.012020|
|        4671|   -6.103413|   -8.079432|    0.824238|    0.012020|
|        4672|   -6.105528|   -8.085738|    0.824239|    0.012020|
|        4673|   -6.107845|   -8.092197|    0.824239|    0.012021|
|        4674|   -6.110376|   -8.098808|    0.824239|    0.012021|
|        4675|   -6.113128|   -8.105574|    0.824239|    0.012021|
|        4676|   -6.116099|   -8.112493|    0.824239|    0.012021|
|        4677|   -6.119283|   -8.119563|    0.824239|    0.012021|
|        4678|   -6.122667|   -8.126778|    0.824239|    0.012021|
|        4679|   -6.126232|   -8.134132|    0.824240|    0.012021|
|        4680|   -6.129953|   -8.141616|    0.824240|    0.012021|
|        4681|   -6.133800|   -8.149218|    0.824240|    0.012021|
|        4682|   -6.137739|   -8.156927|    0.824240|    0.012021|
|        4683|   -6.141734|   -8.164727|    0.824240|    0.012021|
|        4684|   -6.145744|   -8.172603|    0.824240|    0.012021|
|        4685|   -6.149730|   -8.180539|    0.824241|    0.012022|
|        4686|   -6.153648|   -8.188518|    0.824241|    0.012022|
|        4687|   -6.157461|   -8.196522|    0.824241|    0.012022|
|        4688|   -6.161130|   -8.204534|    0.824241|    0.012022|
|        4689|   -6.164622|   -8.212540|    0.824241|    0.012022|
|        4690|   -6.167910|   -8.220523|    0.824241|    0.012022|
|        4691|   -6.170970|   -8.228472|    0.824241|    0.012022|
|        4692|   -6.173789|   -8.236376|    0.824241|    0.012022|
|        4693|   -6.176360|   -8.244225|    0.824242|    0.012022|
|        4694|   -6.178683|   -8.252013|    0.824242|    0.012022|
|        4695|   -6.180769|   -8.259737|    0.824242|    0.012022|
|        4696|   -6.182633|   -8.267395|    0.824242|    0.012022|
|        4697|   -6.184300|   -8.274988|    0.824242|    0.012022|
|        4698|   -6.185799|   -8.282520|    0.824242|    0.012023|
|        4699|   -6.187166|   -8.289994|    0.824242|    0.012023|
|        4700|   -6.188440|   -8.297418|    0.824242|    0.012023|
|        4701|   -6.189661|   -8.304800|    0.824242|    0.012023|
|        4702|   -6.190872|   -8.312149|    0.824242|    0.012023|
|        4703|   -6.192116|   -8.319473|    0.824243|    0.012023|
|        4704|   -6.193435|   -8.326782|    0.824243|    0.012023|
|        4705|   -6.194870|   -8.334086|    0.824243|    0.012023|
|        4706|   -6.196456|   -8.341392|    0.824243|    0.012023|
|        4707|   -6.198230|   -8.348708|    0.824243|    0.012023|
|        4708|   -6.200221|   -8.356040|    0.824243|    0.012023|
|        4709|   -6.202455|   -8.363393|    0.824243|    0.012023|
|        4710|   -6.204956|   -8.370769|    0.824243|    0.012023|
|        4711|   -6.207741|   -8.378169|    0.824243|    0.012023|
|        4712|   -6.210822|   -8.385593|    0.824243|    0.012023|
|        4713|   -6.214207|   -8.393035|    0.824243|    0.012023|
|        4714|   -6.217900|   -8.400490|    0.824243|    0.012023|
|        4715|   -6.221899|   -8.407950|    0.824243|    0.012023|
|        4716|   -6.226196|   -8.415404|    0.824243|    0.012023|
|        4717|   -6.230781|   -8.422840|    0.824243|    0.012023|
|        4718|   -6.235636|   -8.430243|    0.824243|    0.012023|
|        4719|   -6.240740|   -8.437598|    0.824243|    0.012023|
|        4720|   -6.246068|   -8.444886|    0.824243|    0.012023|
|        4721|   -6.251588|   -8.452088|    0.824243|    0.012023|
|        4722|   -6.257266|   -8.459184|    0.824243|    0.012023|
|        4723|   -6.263062|   -8.466152|    0.824243|    0.012023|
|        4724|   -6.268935|   -8.472970|    0.824243|    0.012023|
|        4725|   -6.274840|   -8.479615|    0.824243|    0.012023|
|        4726|   -6.280730|   -8.486064|    0.824243|    0.012023|
|        4727|   -6.286556|   -8.492295|    0.824243|    0.012022|
|        4728|   -6.292270|   -8.498284|    0.824243|    0.012022|
|        4729|   -6.297824|   -8.504010|    0.824243|    0.012022|
|        4730|   -6.303172|   -8.509454|    0.824243|    0.012022|
|        4731|   -6.308272|   -8.514596|    0.824243|    0.012022|
|        4732|   -6.313085|   -8.519418|    0.824243|    0.012022|
|        4733|   -6.317578|   -8.523903|    0.824243|    0.012022|
|        4734|   -6.321725|   -8.528036|    0.824243|    0.012022|
|        4735|   -6.325506|   -8.531802|    0.824243|    0.012022|
|        4736|   -6.328907|   -8.535189|    0.824243|    0.012022|
|        4737|   -6.331923|   -8.538183|    0.824243|    0.012022|
|        4738|   -6.334555|   -8.540774|    0.824243|    0.012022|
|        4739|   -6.336813|   -8.542949|    0.824243|    0.012021|
|        4740|   -6.338709|   -8.544700|    0.824243|    0.012021|
|        4741|   -6.340262|   -8.546017|    0.824243|    0.012021|
|        4742|   -6.341495|   -8.546891|    0.824243|    0.012021|
|        4743|   -6.342435|   -8.547315|    0.824244|    0.012021|
|        4744|   -6.343107|   -8.547283|    0.824244|    0.012021|
|        4745|   -6.343541|   -8.546792|    0.824244|    0.012021|
|        4746|   -6.343763|   -8.545839|    0.824244|    0.012021|
|        4747|   -6.343801|   -8.544426|    0.824244|    0.012021|
|        4748|   -6.343680|   -8.542558|    0.824244|    0.012021|
|        4749|   -6.343422|   -8.540244|    0.824244|    0.012020|
|        4750|   -6.343049|   -8.537495|    0.824245|    0.012020|
|        4751|   -6.342579|   -8.534330|    0.824245|    0.012020|
|        4752|   -6.342028|   -8.530769|    0.824245|    0.012020|
|        4753|   -6.341408|   -8.526840|    0.824245|    0.012020|
|        4754|   -6.340731|   -8.522574|    0.824245|    0.012020|
|        4755|   -6.340005|   -8.518003|    0.824246|    0.012020|
|        4756|   -6.339238|   -8.513166|    0.824246|    0.012020|
|        4757|   -6.338435|   -8.508101|    0.824246|    0.012020|
|        4758|   -6.337600|   -8.502851|    0.824246|    0.012020|
|        4759|   -6.336738|   -8.497459|    0.824246|    0.012020|
|        4760|   -6.335850|   -8.491969|    0.824247|    0.012019|
|        4761|   -6.334939|   -8.486422|    0.824247|    0.012019|
|        4762|   -6.334008|   -8.480861|    0.824247|    0.012019|
|        4763|   -6.333059|   -8.475321|    0.824247|    0.012019|
|        4764|   -6.332095|   -8.469840|    0.824247|    0.012019|
|        4765|   -6.331117|   -8.464447|    0.824248|    0.012019|
|        4766|   -6.330129|   -8.459172|    0.824248|    0.012019|
|        4767|   -6.329135|   -8.454039|    0.824248|    0.012019|
|        4768|   -6.328140|   -8.449068|    0.824248|    0.012019|
|        4769|   -6.327148|   -8.444278|    0.824248|    0.012019|
|        4770|   -6.326164|   -8.439681|    0.824249|    0.012019|
|        4771|   -6.325196|   -8.435288|    0.824249|    0.012019|
|        4772|   -6.324251|   -8.431107|    0.824249|    0.012019|
|        4773|   -6.323336|   -8.427143|    0.824249|    0.012019|
|        4774|   -6.322460|   -8.423396|    0.824249|    0.012019|
|        4775|   -6.321632|   -8.419868|    0.824250|    0.012019|
|        4776|   -6.320862|   -8.416555|    0.824250|    0.012019|
|        4777|   -6.320162|   -8.413453|    0.824250|    0.012019|
|        4778|   -6.319542|   -8.410559|    0.824250|    0.012019|
|        4779|   -6.319016|   -8.407865|    0.824250|    0.012019|
|        4780|   -6.318595|   -8.405364|    0.824250|    0.012019|
|        4781|   -6.318293|   -8.403048|    0.824250|    0.012019|
|        4782|   -6.318124|   -8.400910|    0.824251|    0.012019|
|        4783|   -6.318102|   -8.398942|    0.824251|    0.012019|
|        4784|   -6.318240|   -8.397135|    0.824251|    0.012019|
|        4785|   -6.318552|   -8.395481|    0.824251|    0.012019|
|        4786|   -6.319054|   -8.393973|    0.824251|    0.012019|
|        4787|   -6.319757|   -8.392603|    0.824251|    0.012019|
|        4788|   -6.320675|   -8.391365|    0.824251|    0.012019|
|        4789|   -6.321820|   -8.390252|    0.824251|    0.012019|
|        4790|   -6.323202|   -8.389260|    0.824251|    0.012019|
|        4791|   -6.324832|   -8.388382|    0.824251|    0.012019|
|        4792|   -6.326717|   -8.387614|    0.824252|    0.012019|
|        4793|   -6.328865|   -8.386953|    0.824252|    0.012019|
|        4794|   -6.331278|   -8.386393|    0.824252|    0.012019|
|        4795|   -6.333960|   -8.385932|    0.824252|    0.012019|
|        4796|   -6.336910|   -8.385566|    0.824252|    0.012019|
|        4797|   -6.340126|   -8.385292|    0.824252|    0.012019|
|        4798|   -6.343601|   -8.385107|    0.824252|    0.012019|
|        4799|   -6.347327|   -8.385008|    0.824252|    0.012019|
|        4800|   -6.351293|   -8.384992|    0.824252|    0.012019|
|        4801|   -6.355481|   -8.385055|    0.824252|    0.012020|
|        4802|   -6.359875|   -8.385195|    0.824252|    0.012020|
|        4803|   -6.364451|   -8.385409|    0.824252|    0.012020|
|        4804|   -6.369184|   -8.385692|    0.824252|    0.012020|
|        4805|   -6.374043|   -8.386042|    0.824252|    0.012020|
|        4806|   -6.378997|   -8.386455|    0.824252|    0.012020|
|        4807|   -6.384010|   -8.386927|    0.824252|    0.012020|
|        4808|   -6.389042|   -8.387455|    0.824252|    0.012020|
|        4809|   -6.394052|   -8.388034|    0.824252|    0.012020|
|        4810|   -6.398998|   -8.388662|    0.824252|    0.012020|
|        4811|   -6.403834|   -8.389335|    0.824252|    0.012020|
|        4812|   -6.408518|   -8.390048|    0.824252|    0.012020|
|        4813|   -6.413004|   -8.390799|    0.824252|    0.012021|
|        4814|   -6.417250|   -8.391583|    0.824252|    0.012021|
|        4815|   -6.421217|   -8.392397|    0.824252|    0.012021|
|        4816|   -6.424869|   -8.393238|    0.824252|    0.012021|
|        4817|   -6.428175|   -8.394101|    0.824251|    0.012021|
|        4818|   -6.431108|   -8.394985|    0.824251|    0.012021|
|        4819|   -6.433649|   -8.395884|    0.824251|    0.012021|
|        4820|   -6.435787|   -8.396797|    0.824251|    0.012021|
|        4821|   -6.437516|   -8.397719|    0.824251|    0.012021|
|        4822|   -6.438839|   -8.398648|    0.824251|    0.012021|
|        4823|   -6.439765|   -8.399579|    0.824251|    0.012021|
|        4824|   -6.440310|   -8.400510|    0.824251|    0.012021|
|        4825|   -6.440498|   -8.401437|    0.824251|    0.012021|
|        4826|   -6.440354|   -8.402357|    0.824251|    0.012021|
|        4827|   -6.439913|   -8.403266|    0.824251|    0.012021|
|        4828|   -6.439210|   -8.404160|    0.824251|    0.012021|
|        4829|   -6.438282|   -8.405036|    0.824250|    0.012021|
|        4830|   -6.437168|   -8.405890|    0.824250|    0.012021|
|        4831|   -6.435910|   -8.406720|    0.824250|    0.012022|
|        4832|   -6.434547|   -8.407520|    0.824250|    0.012022|
|        4833|   -6.433117|   -8.408289|    0.824250|    0.012022|
|        4834|   -6.431657|   -8.409022|    0.824250|    0.012022|
|        4835|   -6.430204|   -8.409716|    0.824250|    0.012022|
|        4836|   -6.428791|   -8.410370|    0.824250|    0.012022|
|        4837|   -6.427446|   -8.410979|    0.824250|    0.012022|
|        4838|   -6.426199|   -8.411542|    0.824250|    0.012022|
|        4839|   -6.425075|   -8.412057|    0.824250|    0.012022|
|        4840|   -6.424095|   -8.412521|    0.824249|    0.012022|
|        4841|   -6.423279|   -8.412934|    0.824249|    0.012022|
|        4842|   -6.422644|   -8.413295|    0.824249|    0.012022|
|        4843|   -6.422203|   -8.413603|    0.824249|    0.012022|
|        4844|   -6.421970|   -8.413858|    0.824249|    0.012022|
|        4845|   -6.421953|   -8.414060|    0.824249|    0.012022|
|        4846|   -6.422159|   -8.414210|    0.824249|    0.012021|
|        4847|   -6.422595|   -8.414308|    0.824249|    0.012021|
|        4848|   -6.423264|   -8.414356|    0.824249|    0.012021|
|        4849|   -6.424167|   -8.414354|    0.824249|    0.012021|
|        4850|   -6.425305|   -8.414305|    0.824249|    0.012021|
|        4851|   -6.426677|   -8.414209|    0.824249|    0.012021|
|        4852|   -6.428282|   -8.414070|    0.824249|    0.012021|
|        4853|   -6.430115|   -8.413888|    0.824249|    0.012021|
|        4854|   -6.432174|   -8.413666|    0.824249|    0.012021|
|        4855|   -6.434453|   -8.413405|    0.824249|    0.012007|
+-----------------------------------------------------------------------+
|Fixed CL Mode (Finite Difference)       |Value                         |
+-----------------------------------------------------------------------+
|Delta CL / Delta AoA                    |0.24956                       |
|Delta CD / Delta CL                     |0.0174742                     |
|Delta CMz / Delta CL                    |0.00726067                    |
+-----------------------------------------------------------------------+
Writing Flow Meta-Data file: flow.meta

--------------------------- Finalizing Solver ---------------------------
Deleted CNumerics container.
Deleted CIntegration container.
Deleted CSolver container.
Deleted CIteration container.
Deleted CInterface container.
Deleted CGeometry container.
Deleted CFreeFormDefBox class.
Deleted CSurfaceMovement class.
Deleted CVolumetricMovement class.
Deleted CConfig container.
Deleted nInst container.
Deleted COutput class.
-------------------------------------------------------------------------

------------------------- Exit Success (SU2_CFD) ------------------------


-------------------------------------------------------------------------
|    ___ _   _ ___                                                      |
|   / __| | | |_  )   Release 8.0.0 "Harrier"                           |
|   \__ \ |_| |/ /                                                      |
|   |___/\___//___|   Suite (Solution Exporting Code)                   |
|                                                                       |
-------------------------------------------------------------------------
| SU2 Project Website: https://su2code.github.io                        |
|                                                                       |
| The SU2 Project is maintained by the SU2 Foundation                   |
| (http://su2foundation.org)                                            |
-------------------------------------------------------------------------
| Copyright 2012-2023, SU2 Contributors                                 |
|                                                                       |
| SU2 is free software; you can redistribute it and/or                  |
| modify it under the terms of the GNU Lesser General Public            |
| License as published by the Free Software Foundation; either          |
| version 2.1 of the License, or (at your option) any later version.    |
|                                                                       |
| SU2 is distributed in the hope that it will be useful,                |
| but WITHOUT ANY WARRANTY; without even the implied warranty of        |
| MERCHANTABILITY or FITNESS FOR A PARTICULAR PURPOSE. See the GNU      |
| Lesser General Public License for more details.                       |
|                                                                       |
| You should have received a copy of the GNU Lesser General Public      |
| License along with SU2. If not, see <http://www.gnu.org/licenses/>.   |
-------------------------------------------------------------------------

----------------- Physical Case Definition ( Zone 0 ) -------------------
Input mesh file name: mesh_RAE2822_turb_deform.su2

-------------------- Output Information ( Zone 0 ) ----------------------
The tabular file format is CSV (.csv).
Flow variables file name: flow.

------------- Config File Boundary Information ( Zone 0 ) ---------------
+-----------------------------------------------------------------------+
|                        Marker Type|                        Marker Name|
+-----------------------------------------------------------------------+
|                          Far-field|                           FARFIELD|
+-----------------------------------------------------------------------+
|                     Heat flux wall|                            AIRFOIL|
+-----------------------------------------------------------------------+
Two dimensional problem.
13937 grid points before partitioning.
22842 volume elements before partitioning.
2 surface markers.
192 boundary elements in index 0 (Marker = AIRFOIL).
40 boundary elements in index 1 (Marker = FARFIELD).
Executing the partitioning functions.
Building the graph adjacency structure.
Calling ParMETIS... graph partitioning complete (831 edge cuts).
Distributing ParMETIS coloring.
Rebalancing vertices.
Rebalancing volume element connectivity.
Rebalancing markers and surface elements.
14875 vertices including ghost points. 
23674 interior elements including halo cells. 
18780 triangles.
4894 quadrilaterals.
Establishing MPI communication patterns.
Identify vertices.
Storing a mapping from global to local point index.

------------------------- Solution Postprocessing -----------------------
Reading and storing the solution from restart_flow.
Volume output fields: COORDINATES, SOLUTION
  Info: Ignoring the following screen output fields:
  RMS_DENSITY, RMS_NU_TILDE, LIFT, DRAG
Screen output fields: INNER_ITER
  Info: Ignoring the following history output groups:
  RMS_RES, AERO_COEFF
History output group(s): ITER
Warning: No (valid) fields chosen for convergence monitoring. Convergence monitoring inactive.
Warning: No (valid) fields chosen for time convergence monitoring. Time convergence monitoring inactive.
|Paraview                           |flow.vtu                           |
|Paraview surface                   |surface_flow.vtu                   |
|CSV file                           |surface_flow.csv                   |

------------------------- Finalize Solver -------------------------
Deleted CGeometry container.
Deleted CSolver class.
Deleted CConfig container.
Deleted COutput class.

Completed in 0.016834 seconds on 6 cores.

------------------------- Exit Success (SU2_SOL) ------------------------

