
-------------------------------------------------------------------------
|    ___ _   _ ___                                                      |
|   / __| | | |_  )   Release 8.0.0 "Harrier"                           |
|   \__ \ |_| |/ /                                                      |
|   |___/\___//___|   Suite (Computational Fluid Dynamics Code)         |
|                                                                       |
-------------------------------------------------------------------------
| SU2 Project Website: https://su2code.github.io                        |
|                                                                       |
| The SU2 Project is maintained by the SU2 Foundation                   |
| (http://su2foundation.org)                                            |
-------------------------------------------------------------------------
| Copyright 2012-2023, SU2 Contributors                                 |
|                                                                       |
| SU2 is free software; you can redistribute it and/or                  |
| modify it under the terms of the GNU Lesser General Public            |
| License as published by the Free Software Foundation; either          |
| version 2.1 of the License, or (at your option) any later version.    |
|                                                                       |
| SU2 is distributed in the hope that it will be useful,                |
| but WITHOUT ANY WARRANTY; without even the implied warranty of        |
| MERCHANTABILITY or FITNESS FOR A PARTICULAR PURPOSE. See the GNU      |
| Lesser General Public License for more details.                       |
|                                                                       |
| You should have received a copy of the GNU Lesser General Public      |
| License along with SU2. If not, see <http://www.gnu.org/licenses/>.   |
-------------------------------------------------------------------------

Parsing config file for zone 0

----------------- Physical Case Definition ( Zone 0 ) -------------------
Compressible RANS equations.
Turbulence model: Spalart-Allmaras-noft2
Hybrid RANS/LES: No Hybrid RANS/LES
Mach number: 0.734.
Angle of attack (AoA): 2.31 deg, and angle of sideslip (AoS): 0 deg.
Reynolds number: 6.5e+06. Reference length 1.
Fixed CL mode, target value: 0.824.
Reading and writing binary SU2 native restart files.
Read flow solution from: solution_flow.dat.
Dimensional simulation.
The reference area is 1 m^2.
The semi-span will be computed using the max y(3D) value.
The reference length is 1 m.
Reference origin for moment evaluation is (0.25, 0, 0).
Surface(s) where the force coefficients are evaluated: AIRFOIL.

Surface(s) plotted in the output file: AIRFOIL.
Surface(s) affected by the design variables: AIRFOIL.
Input mesh file name: mesh_RAE2822_turb_deform.su2

--------------- Space Numerical Integration ( Zone 0 ) ------------------
Jameson-Schmidt-Turkel scheme (2nd order in space) for the flow inviscid terms.
JST viscous coefficients (2nd & 4th): 0.5, 0.02.
The method includes a grid stretching correction (p = 0.3).
Scalar upwind solver for the turbulence model.
First order integration in space.
Average of gradients with correction (viscous flow terms).
Average of gradients with correction (viscous turbulence terms).
Gradient for viscous and source terms: inverse-distance weighted Least-Squares.

--------------- Time Numerical Integration  ( Zone 0 ) ------------------
Local time stepping (steady state simulation).
Euler implicit method for the flow equations.
FGMRES is used for solving the linear system.
Using a ILU(0) preconditioning.
Convergence criteria of the linear solver: 1e-06.
Max number of linear iterations: 10.
No CFL adaptation.
Courant-Friedrichs-Lewy number:       10
Euler implicit time integration for the turbulence model.

------------------ Convergence Criteria  ( Zone 0 ) ---------------------
Maximum number of solver subiterations: 5500.
Begin convergence monitoring at iteration 10.
Residual minimum value: 1e-12.
Cauchy series min. value: 1e-06.
Number of Cauchy elements: 100.
Begin windowed time average at iteration 0.

-------------------- Output Information ( Zone 0 ) ----------------------
File writing frequency: 
+------------------------------------+
|                     File| Frequency|
+------------------------------------+
|                  RESTART|     10000|
|                 PARAVIEW|     10000|
|         SURFACE_PARAVIEW|     10000|
|              SURFACE_CSV|     10000|
+------------------------------------+
Writing the convergence history file every 1 inner iterations.
Writing the screen convergence history every 1 inner iterations.
The tabular file format is CSV (.csv).
Convergence history file name: history_direct.
Forces breakdown file name: forces_breakdown.dat.
Surface file name: surface_flow.
Volume file name: flow.
Restart file name: restart_flow.dat.

------------- Config File Boundary Information ( Zone 0 ) ---------------
+-----------------------------------------------------------------------+
|                        Marker Type|                        Marker Name|
+-----------------------------------------------------------------------+
|                          Far-field|                           FARFIELD|
+-----------------------------------------------------------------------+
|                     Heat flux wall|                            AIRFOIL|
+-----------------------------------------------------------------------+

-------------------- Output Preprocessing ( Zone 0 ) --------------------

WARNING: SURFACE_PRESSURE_DROP can only be computed for at least 2 surfaces (outlet, inlet, ...)

Screen output fields: INNER_ITER, RMS_DENSITY, RMS_NU_TILDE, LIFT, DRAG
History output group(s): ITER, RMS_RES, AERO_COEFF
Convergence field(s): RMS_DENSITY
Warning: No (valid) fields chosen for time convergence monitoring. Time convergence monitoring inactive.
Volume output fields: COORDINATES, SOLUTION, PRIMITIVE

------------------- Geometry Preprocessing ( Zone 0 ) -------------------
Two dimensional problem.
13937 grid points before partitioning.
22842 volume elements before partitioning.
2 surface markers.
192 boundary elements in index 0 (Marker = AIRFOIL).
40 boundary elements in index 1 (Marker = FARFIELD).
Executing the partitioning functions.
Building the graph adjacency structure.
Calling ParMETIS... graph partitioning complete (831 edge cuts).
Distributing ParMETIS coloring.
Rebalancing vertices.
Rebalancing volume element connectivity.
Rebalancing markers and surface elements.
14875 vertices including ghost points. 
23674 interior elements including halo cells. 
18780 triangles.
4894 quadrilaterals.
Establishing MPI communication patterns.
Setting point connectivity.
Renumbering points (Reverse Cuthill McKee Ordering).
Recomputing point connectivity.
Setting element connectivity.
Checking the numerical grid orientation.
All volume elements are correctly orientend.
All surface elements are correctly orientend.
Identifying edges and vertices.
Setting the control volume structure.
Area of the computational grid: 32209.9.
Searching for the closest normal neighbors to the surfaces.
Storing a mapping from global to local point index.
Compute the surface curvature.
Max K: 174.999. Mean K: 7.85358. Standard deviation K: 24.084.
Checking for periodicity.
Computing mesh quality statistics for the dual control volumes.
+--------------------------------------------------------------+
|           Mesh Quality Metric|        Minimum|        Maximum|
+--------------------------------------------------------------+
|    Orthogonality Angle (deg.)|        75.1239|        89.9991|
|     CV Face Area Aspect Ratio|        1.00394|         3358.5|
|           CV Sub-Volume Ratio|        1.00046|        1215.32|
+--------------------------------------------------------------+
Finding max control volume width.
Communicating number of neighbors.
Wetted area = 2.02184 m.
Area projection in the x-plane = 0.124883 m, y-plane = 0.995873 m.
Max. coordinate in the x-direction = 1 m, y-direction = 0.0620638 m.
Min. coordinate in the x-direction = 0 m, y-direction = -0.0599482 m.
Computing wall distances.

-------------------- Solver Preprocessing ( Zone 0 ) --------------------
WARNING: AoA in the solution file (2.78894 deg.) +
         AoA offset in mesh file (0 deg.) = 2.78894 deg.
WARNING: SU2 will use the dCD/dCL provided in the direct solution file: 0.018124.
WARNING: SU2 will use the dCMz/dCL provided in the direct solution file: 0.00584739.
Viscous flow: Computing pressure using the ideal gas law
based on the free-stream temperature and a density computed
from the Reynolds number.
Force coefficients computed using free-stream values.

-- Models:
+------------------------------------------------------------------------------+
|          Viscosity Model|        Conductivity Model|              Fluid Model|
+------------------------------------------------------------------------------+
|               SUTHERLAND|          CONSTANT_PRANDTL|             STANDARD_AIR|
+------------------------------------------------------------------------------+
-- Fluid properties:
+------------------------------------------------------------------------------+
|                  Name|    Dim. value|    Ref. value|      Unit|Non-dim. value|
+------------------------------------------------------------------------------+
|        Ref. Viscosity|     1.716e-05|             1|   N.s/m^2|     1.716e-05|
|      Sutherland Temp.|        273.15|             1|         K|        273.15|
|     Sutherland Const.|         110.4|             1|         K|         110.4|
+------------------------------------------------------------------------------+
|        Prandtl (Lam.)|             -|             -|         -|          0.71|
|       Prandtl (Turb.)|             -|             -|         -|           0.9|
+------------------------------------------------------------------------------+
|          Gas Constant|       287.058|             1|  N.m/kg.K|       287.058|
|      Spec. Heat Ratio|             -|             -|         -|           1.4|
+------------------------------------------------------------------------------+
-- Initial and free-stream conditions:
+------------------------------------------------------------------------------+
|                  Name|    Dim. value|    Ref. value|      Unit|Non-dim. value|
+------------------------------------------------------------------------------+
|       Static Pressure|         38515|             1|        Pa|         38515|
|               Density|      0.465631|             1|    kg/m^3|      0.465631|
|           Temperature|        288.15|             1|         K|        288.15|
|          Total Energy|        237984|             1|   m^2/s^2|        237984|
|            Velocity-X|       249.482|             1|       m/s|       249.482|
|            Velocity-Y|       12.1534|             1|       m/s|       12.1534|
|    Velocity Magnitude|       249.778|             1|       m/s|       249.778|
+------------------------------------------------------------------------------+
|             Viscosity|    1.7893e-05|             1|   N.s/m^2|    1.7893e-05|
|          Conductivity|             -|             1|   W/m^2.K|             -|
|     Turb. Kin. Energy|       233.959|             1|   m^2/s^2|       233.959|
|     Spec. Dissipation|        608834|             1|       1/s|        608834|
+------------------------------------------------------------------------------+
|           Mach Number|             -|             -|         -|         0.734|
|       Reynolds Number|             -|             -|         -|       6.5e+06|
+------------------------------------------------------------------------------+
Initialize Jacobian structure (Navier-Stokes). MG level: 0.
Initialize Jacobian structure (SA model).

------------------- Numerics Preprocessing ( Zone 0 ) -------------------

----------------- Integration Preprocessing ( Zone 0 ) ------------------

------------------- Iteration Preprocessing ( Zone 0 ) ------------------
Euler/Navier-Stokes/RANS fluid iteration.

------------------------------ Begin Solver -----------------------------

Simulation Run using the Single-zone Driver
WARNING: SU2 was not compiled for an AVX-capable architecture. Performance could be better,
         see https://su2code.github.io/docs_v7/Build-SU2-Linux-MacOS/#compiler-optimizations
+----------------------------------------------------------------+
|  Inner_Iter|    rms[Rho]|     rms[nu]|          CL|          CD|
+----------------------------------------------------------------+
|           0|   -5.645222|   -6.790254|    0.823992|    0.012001|
|           1|   -5.699850|   -6.878944|    0.823985|    0.011999|
|           2|   -5.753608|   -6.982812|    0.823979|    0.011998|
|           3|   -5.788588|   -7.097568|    0.823976|    0.011998|
|           4|   -5.810536|   -7.219279|    0.823974|    0.011998|
|           5|   -5.825988|   -7.336896|    0.823974|    0.011998|
|           6|   -5.837231|   -7.425614|    0.823974|    0.011998|
|           7|   -5.844739|   -7.462533|    0.823973|    0.011997|
|           8|   -5.848345|   -7.458787|    0.823973|    0.011997|
|           9|   -5.847256|   -7.443073|    0.823973|    0.011996|
|          10|   -5.840604|   -7.431170|    0.823974|    0.011995|
|          11|   -5.828453|   -7.425077|    0.823975|    0.011994|
|          12|   -5.812214|   -7.420568|    0.823976|    0.011994|
|          13|   -5.794104|   -7.412744|    0.823978|    0.011994|
|          14|   -5.776273|   -7.399466|    0.823980|    0.011994|
|          15|   -5.760250|   -7.381938|    0.823982|    0.011994|
|          16|   -5.746831|   -7.362829|    0.823984|    0.011994|
|          17|   -5.736210|   -7.344242|    0.823986|    0.011994|
|          18|   -5.728177|   -7.326954|    0.823988|    0.011995|
|          19|   -5.722298|   -7.310729|    0.823989|    0.011995|
|          20|   -5.718046|   -7.294989|    0.823991|    0.011995|
|          21|   -5.714881|   -7.279387|    0.823992|    0.011996|
|          22|   -5.712303|   -7.264074|    0.823993|    0.011996|
|          23|   -5.709878|   -7.249654|    0.823993|    0.011997|
|          24|   -5.707263|   -7.236961|    0.823993|    0.011997|
|          25|   -5.704225|   -7.226808|    0.823993|    0.011997|
|          26|   -5.700653|   -7.219832|    0.823992|    0.011997|
|          27|   -5.696555|   -7.216412|    0.823991|    0.011998|
|          28|   -5.692040|   -7.216659|    0.823990|    0.011998|
|          29|   -5.687281|   -7.220422|    0.823989|    0.011998|
|          30|   -5.682484|   -7.227307|    0.823988|    0.011998|
|          31|   -5.677849|   -7.236693|    0.823987|    0.011998|
|          32|   -5.673558|   -7.247747|    0.823985|    0.011998|
|          33|   -5.669757|   -7.259475|    0.823984|    0.011998|
|          34|   -5.666552|   -7.270798|    0.823983|    0.011998|
|          35|   -5.664012|   -7.280670|    0.823982|    0.011998|
|          36|   -5.662162|   -7.288233|    0.823981|    0.011998|
|          37|   -5.660992|   -7.292936|    0.823981|    0.011998|
|          38|   -5.660456|   -7.294624|    0.823980|    0.011998|
|          39|   -5.660476|   -7.293507|    0.823979|    0.011998|
|          40|   -5.660958|   -7.290084|    0.823979|    0.011998|
|          41|   -5.661805|   -7.285013|    0.823979|    0.011998|
|          42|   -5.662920|   -7.279002|    0.823979|    0.011998|
|          43|   -5.664225|   -7.272732|    0.823978|    0.011998|
|          44|   -5.665660|   -7.266809|    0.823978|    0.011998|
|          45|   -5.667189|   -7.261748|    0.823978|    0.011998|
|          46|   -5.668800|   -7.257961|    0.823978|    0.011998|
|          47|   -5.670499|   -7.255751|    0.823979|    0.011998|
|          48|   -5.672303|   -7.255315|    0.823979|    0.011998|
|          49|   -5.674236|   -7.256736|    0.823979|    0.011998|
|          50|   -5.676328|   -7.259984|    0.823979|    0.011998|
|          51|   -5.678605|   -7.264920|    0.823980|    0.011998|
|          52|   -5.681089|   -7.271302|    0.823980|    0.011998|
|          53|   -5.683793|   -7.278801|    0.823981|    0.011998|
|          54|   -5.686725|   -7.287019|    0.823981|    0.011998|
|          55|   -5.689883|   -7.295522|    0.823981|    0.011998|
|          56|   -5.693259|   -7.303873|    0.823982|    0.011998|
|          57|   -5.696839|   -7.311677|    0.823982|    0.011999|
|          58|   -5.700605|   -7.318612|    0.823983|    0.011999|
|          59|   -5.704535|   -7.324467|    0.823983|    0.011999|
|          60|   -5.708604|   -7.329147|    0.823983|    0.011999|
|          61|   -5.712785|   -7.332680|    0.823984|    0.012000|
|          62|   -5.717050|   -7.335190|    0.823984|    0.012000|
|          63|   -5.721372|   -7.336873|    0.823984|    0.012000|
|          64|   -5.725727|   -7.337961|    0.823984|    0.012000|
|          65|   -5.730098|   -7.338686|    0.823984|    0.012001|
|          66|   -5.734474|   -7.339257|    0.823984|    0.012001|
|          67|   -5.738853|   -7.339837|    0.823984|    0.012001|
|          68|   -5.743242|   -7.340538|    0.823984|    0.012001|
|          69|   -5.747654|   -7.341416|    0.823984|    0.012001|
|          70|   -5.752103|   -7.342480|    0.823983|    0.012002|
|          71|   -5.756600|   -7.343704|    0.823983|    0.012002|
|          72|   -5.761151|   -7.345040|    0.823983|    0.012002|
|          73|   -5.765747|   -7.346438|    0.823983|    0.012002|
|          74|   -5.770370|   -7.347858|    0.823982|    0.012003|
|          75|   -5.774986|   -7.349280|    0.823982|    0.012003|
|          76|   -5.779555|   -7.350709|    0.823982|    0.012003|
|          77|   -5.784031|   -7.352174|    0.823982|    0.012004|
|          78|   -5.788368|   -7.353723|    0.823981|    0.012004|
|          79|   -5.792527|   -7.355413|    0.823981|    0.012004|
|          80|   -5.796482|   -7.357304|    0.823981|    0.012004|
|          81|   -5.800219|   -7.359450|    0.823981|    0.012005|
|          82|   -5.803736|   -7.361895|    0.823980|    0.012005|
|          83|   -5.807046|   -7.364671|    0.823980|    0.012005|
|          84|   -5.810169|   -7.367797|    0.823980|    0.012006|
|          85|   -5.813131|   -7.371282|    0.823979|    0.012006|
|          86|   -5.815955|   -7.375128|    0.823979|    0.012006|
|          87|   -5.818666|   -7.379329|    0.823979|    0.012006|
|          88|   -5.821279|   -7.383879|    0.823978|    0.012007|
|          89|   -5.823806|   -7.388767|    0.823978|    0.012007|
|          90|   -5.826249|   -7.393984|    0.823978|    0.012007|
|          91|   -5.828600|   -7.399518|    0.823978|    0.012007|
|          92|   -5.830849|   -7.405356|    0.823977|    0.012007|
|          93|   -5.832973|   -7.411485|    0.823977|    0.012008|
|          94|   -5.834947|   -7.417890|    0.823977|    0.012008|
|          95|   -5.836741|   -7.424552|    0.823977|    0.012008|
|          96|   -5.838321|   -7.431452|    0.823977|    0.012008|
|          97|   -5.839655|   -7.438565|    0.823976|    0.012009|
|          98|   -5.840709|   -7.445863|    0.823976|    0.012009|
|          99|   -5.841457|   -7.453313|    0.823976|    0.012009|
|         100|   -5.841877|   -7.460879|    0.823976|    0.012009|
|         101|   -5.841956|   -7.468520|    0.823976|    0.012011|
+-----------------------------------------------------------------------+
|Fixed CL Mode                           |Value                         |
+-----------------------------------------------------------------------+
|Current CL                              |0.823976                      |
|Target CL                               |0.824                         |
|Previous AOA                            |2.78894                       |
|Changed AoA by                          |0.000119162                   |
+-----------------------------------------------------------------------+
+----------------------------------------------------------------+
|  Inner_Iter|    rms[Rho]|     rms[nu]|          CL|          CD|
+----------------------------------------------------------------+
|         102|   -4.117152|   -7.469257|    0.823976|    0.012012|
|         103|   -4.501354|   -7.480314|    0.823976|    0.012012|
|         104|   -4.745407|   -7.488841|    0.823976|    0.012012|
|         105|   -4.824788|   -7.496770|    0.823976|    0.012012|
|         106|   -4.878751|   -7.504359|    0.823976|    0.012013|
|         107|   -4.948294|   -7.511629|    0.823976|    0.012013|
|         108|   -5.033734|   -7.518558|    0.823976|    0.012013|
|         109|   -5.122033|   -7.525118|    0.823975|    0.012013|
|         110|   -5.196608|   -7.531290|    0.823975|    0.012014|
|         111|   -5.249565|   -7.537057|    0.823975|    0.012014|
|         112|   -5.283244|   -7.542407|    0.823975|    0.012014|
|         113|   -5.302058|   -7.547349|    0.823974|    0.012014|
|         114|   -5.310107|   -7.551901|    0.823974|    0.012014|
|         115|   -5.313000|   -7.556084|    0.823974|    0.012014|
|         116|   -5.316809|   -7.559916|    0.823973|    0.012015|
|         117|   -5.325493|   -7.563414|    0.823973|    0.012015|
|         118|   -5.339849|   -7.566601|    0.823972|    0.012015|
|         119|   -5.358068|   -7.569506|    0.823972|    0.012015|
|         120|   -5.377175|   -7.572165|    0.823971|    0.012015|
|         121|   -5.394741|   -7.574617|    0.823971|    0.012015|
|         122|   -5.410012|   -7.576901|    0.823970|    0.012015|
|         123|   -5.423760|   -7.579060|    0.823969|    0.012015|
|         124|   -5.437217|   -7.581131|    0.823969|    0.012015|
|         125|   -5.451113|   -7.583155|    0.823968|    0.012015|
|         126|   -5.465389|   -7.585169|    0.823968|    0.012016|
|         127|   -5.479438|   -7.587211|    0.823967|    0.012016|
|         128|   -5.492491|   -7.589312|    0.823967|    0.012016|
|         129|   -5.503891|   -7.591505|    0.823966|    0.012016|
|         130|   -5.513234|   -7.593818|    0.823966|    0.012016|
|         131|   -5.520417|   -7.596275|    0.823965|    0.012016|
|         132|   -5.525680|   -7.598900|    0.823965|    0.012016|
|         133|   -5.529576|   -7.601713|    0.823965|    0.012016|
|         134|   -5.532857|   -7.604731|    0.823964|    0.012016|
|         135|   -5.536287|   -7.607968|    0.823964|    0.012016|
|         136|   -5.540476|   -7.611438|    0.823964|    0.012016|
|         137|   -5.545767|   -7.615149|    0.823964|    0.012016|
|         138|   -5.552199|   -7.619109|    0.823964|    0.012016|
|         139|   -5.559533|   -7.623321|    0.823964|    0.012016|
|         140|   -5.567304|   -7.627787|    0.823964|    0.012016|
|         141|   -5.574919|   -7.632506|    0.823963|    0.012016|
|         142|   -5.581784|   -7.637474|    0.823963|    0.012016|
|         143|   -5.587461|   -7.642687|    0.823963|    0.012016|
|         144|   -5.591781|   -7.648134|    0.823964|    0.012016|
|         145|   -5.594893|   -7.653809|    0.823964|    0.012016|
|         146|   -5.597202|   -7.659703|    0.823964|    0.012016|
|         147|   -5.599235|   -7.665810|    0.823964|    0.012016|
|         148|   -5.601499|   -7.672115|    0.823964|    0.012017|
|         149|   -5.604370|   -7.678605|    0.823964|    0.012017|
|         150|   -5.608032|   -7.685263|    0.823964|    0.012017|
|         151|   -5.612485|   -7.692069|    0.823965|    0.012017|
|         152|   -5.617575|   -7.698998|    0.823965|    0.012017|
|         153|   -5.623056|   -7.706024|    0.823965|    0.012017|
|         154|   -5.628660|   -7.713121|    0.823966|    0.012017|
|         155|   -5.634148|   -7.720259|    0.823966|    0.012017|
|         156|   -5.639359|   -7.727404|    0.823967|    0.012017|
|         157|   -5.644225|   -7.734521|    0.823967|    0.012017|
|         158|   -5.648761|   -7.741574|    0.823968|    0.012017|
|         159|   -5.653043|   -7.748524|    0.823968|    0.012017|
|         160|   -5.657172|   -7.755331|    0.823969|    0.012017|
|         161|   -5.661247|   -7.761955|    0.823970|    0.012017|
|         162|   -5.665344|   -7.768362|    0.823970|    0.012017|
|         163|   -5.669508|   -7.774517|    0.823971|    0.012017|
|         164|   -5.673752|   -7.780379|    0.823972|    0.012017|
|         165|   -5.678066|   -7.785911|    0.823973|    0.012017|
|         166|   -5.682429|   -7.791073|    0.823974|    0.012017|
|         167|   -5.686814|   -7.795832|    0.823974|    0.012017|
|         168|   -5.691200|   -7.800154|    0.823975|    0.012017|
|         169|   -5.695575|   -7.804010|    0.823976|    0.012017|
|         170|   -5.699935|   -7.807377|    0.823977|    0.012017|
|         171|   -5.704283|   -7.810238|    0.823978|    0.012017|
|         172|   -5.708626|   -7.812582|    0.823979|    0.012018|
|         173|   -5.712973|   -7.814402|    0.823980|    0.012018|
|         174|   -5.717337|   -7.815698|    0.823981|    0.012018|
|         175|   -5.721726|   -7.816477|    0.823982|    0.012018|
|         176|   -5.726153|   -7.816751|    0.823983|    0.012018|
|         177|   -5.730629|   -7.816537|    0.823983|    0.012018|
|         178|   -5.735164|   -7.815860|    0.823984|    0.012018|
|         179|   -5.739770|   -7.814750|    0.823985|    0.012018|
|         180|   -5.744456|   -7.813244|    0.823985|    0.012018|
|         181|   -5.749231|   -7.811382|    0.823986|    0.012018|
|         182|   -5.754102|   -7.809208|    0.823986|    0.012018|
|         183|   -5.759074|   -7.806773|    0.823987|    0.012018|
|         184|   -5.764146|   -7.804126|    0.823987|    0.012018|
|         185|   -5.769316|   -7.801323|    0.823988|    0.012018|
|         186|   -5.774575|   -7.798415|    0.823988|    0.012018|
|         187|   -5.779911|   -7.795455|    0.823988|    0.012018|
|         188|   -5.785305|   -7.792490|    0.823988|    0.012018|
|         189|   -5.790734|   -7.789566|    0.823988|    0.012018|
|         190|   -5.796174|   -7.786725|    0.823988|    0.012018|
|         191|   -5.801595|   -7.784003|    0.823988|    0.012018|
|         192|   -5.806957|   -7.781431|    0.823988|    0.012018|
|         193|   -5.812221|   -7.779037|    0.823987|    0.012018|
|         194|   -5.817345|   -7.776839|    0.823987|    0.012018|
|         195|   -5.822288|   -7.774854|    0.823987|    0.012018|
|         196|   -5.827007|   -7.773091|    0.823987|    0.012018|
|         197|   -5.831464|   -7.771552|    0.823986|    0.012018|
|         198|   -5.835624|   -7.770235|    0.823986|    0.012018|
|         199|   -5.839460|   -7.769139|    0.823985|    0.012018|
|         200|   -5.842953|   -7.768252|    0.823985|    0.012018|
|         201|   -5.846095|   -7.767557|    0.823984|    0.012019|
+-----------------------------------------------------------------------+
|Fixed CL Mode                           |Value                         |
+-----------------------------------------------------------------------+
|Current CL                              |0.823984                      |
|Target CL                               |0.824                         |
|Previous AOA                            |2.78905                       |
|Changed AoA by                          |7.58328e-05                   |
+-----------------------------------------------------------------------+
+----------------------------------------------------------------+
|  Inner_Iter|    rms[Rho]|     rms[nu]|          CL|          CD|
+----------------------------------------------------------------+
|         202|   -4.313263|   -7.755917|    0.823984|    0.012019|
|         203|   -4.695373|   -7.760927|    0.823983|    0.012019|
|         204|   -4.933076|   -7.762253|    0.823983|    0.012019|
|         205|   -5.008980|   -7.762982|    0.823982|    0.012019|
|         206|   -5.061819|   -7.763564|    0.823982|    0.012019|
|         207|   -5.130286|   -7.764084|    0.823982|    0.012019|
|         208|   -5.214152|   -7.764548|    0.823981|    0.012019|
|         209|   -5.300837|   -7.764947|    0.823981|    0.012019|
|         210|   -5.374891|   -7.765269|    0.823980|    0.012019|
|         211|   -5.429041|   -7.765499|    0.823980|    0.012019|
|         212|   -5.465137|   -7.765616|    0.823979|    0.012019|
|         213|   -5.486744|   -7.765610|    0.823979|    0.012019|
|         214|   -5.497242|   -7.765517|    0.823979|    0.012019|
|         215|   -5.501803|   -7.765355|    0.823978|    0.012019|
|         216|   -5.506421|   -7.765128|    0.823978|    0.012019|
|         217|   -5.515249|   -7.764838|    0.823978|    0.012019|
|         218|   -5.529386|   -7.764483|    0.823978|    0.012019|
|         219|   -5.547395|   -7.764064|    0.823978|    0.012019|
|         220|   -5.566700|   -7.763594|    0.823977|    0.012019|
|         221|   -5.585201|   -7.763084|    0.823977|    0.012019|
|         222|   -5.602284|   -7.762544|    0.823977|    0.012019|
|         223|   -5.618672|   -7.761980|    0.823977|    0.012019|
|         224|   -5.635441|   -7.761401|    0.823977|    0.012019|
|         225|   -5.653146|   -7.760813|    0.823977|    0.012019|
|         226|   -5.671546|   -7.760227|    0.823977|    0.012019|
|         227|   -5.689839|   -7.759652|    0.823977|    0.012019|
|         228|   -5.707060|   -7.759098|    0.823977|    0.012019|
|         229|   -5.722396|   -7.758576|    0.823977|    0.012019|
|         230|   -5.735356|   -7.758094|    0.823977|    0.012019|
|         231|   -5.745844|   -7.757662|    0.823978|    0.012020|
|         232|   -5.754185|   -7.757283|    0.823978|    0.012020|
|         233|   -5.761078|   -7.756962|    0.823978|    0.012020|
|         234|   -5.767442|   -7.756701|    0.823978|    0.012020|
|         235|   -5.774195|   -7.756512|    0.823979|    0.012020|
|         236|   -5.782057|   -7.756398|    0.823979|    0.012020|
|         237|   -5.791419|   -7.756360|    0.823979|    0.012020|
|         238|   -5.802304|   -7.756398|    0.823980|    0.012020|
|         239|   -5.814374|   -7.756515|    0.823980|    0.012020|
|         240|   -5.826980|   -7.756714|    0.823980|    0.012020|
|         241|   -5.839267|   -7.756998|    0.823981|    0.012020|
|         242|   -5.850348|   -7.757373|    0.823981|    0.012020|
|         243|   -5.859525|   -7.757845|    0.823982|    0.012020|
|         244|   -5.866499|   -7.758419|    0.823982|    0.012020|
|         245|   -5.871460|   -7.759105|    0.823983|    0.012020|
|         246|   -5.875010|   -7.759908|    0.823983|    0.012020|
|         247|   -5.877961|   -7.760834|    0.823984|    0.012020|
|         248|   -5.881103|   -7.761889|    0.823984|    0.012020|
|         249|   -5.885032|   -7.763079|    0.823985|    0.012020|
|         250|   -5.890068|   -7.764407|    0.823986|    0.012020|
|         251|   -5.896256|   -7.765876|    0.823986|    0.012020|
|         252|   -5.903411|   -7.767491|    0.823987|    0.012020|
|         253|   -5.911211|   -7.769251|    0.823988|    0.012020|
|         254|   -5.919281|   -7.771159|    0.823988|    0.012020|
|         255|   -5.927286|   -7.773214|    0.823989|    0.012020|
|         256|   -5.934998|   -7.775416|    0.823990|    0.012020|
|         257|   -5.942323|   -7.777764|    0.823990|    0.012020|
|         258|   -5.949297|   -7.780256|    0.823991|    0.012020|
|         259|   -5.956051|   -7.782890|    0.823992|    0.012020|
|         260|   -5.962763|   -7.785664|    0.823993|    0.012020|
|         261|   -5.969610|   -7.788575|    0.823993|    0.012020|
|         262|   -5.976736|   -7.791622|    0.823994|    0.012020|
|         263|   -5.984233|   -7.794803|    0.823995|    0.012020|
|         264|   -5.992144|   -7.798116|    0.823996|    0.012020|
|         265|   -6.000470|   -7.801561|    0.823996|    0.012020|
|         266|   -6.009190|   -7.805138|    0.823997|    0.012020|
|         267|   -6.018269|   -7.808847|    0.823998|    0.012020|
|         268|   -6.027670|   -7.812689|    0.823999|    0.012020|
|         269|   -6.037363|   -7.816668|    0.823999|    0.012019|
|         270|   -6.047321|   -7.820785|    0.824000|    0.012019|
|         271|   -6.057518|   -7.825044|    0.824001|    0.012019|
|         272|   -6.067924|   -7.829449|    0.824002|    0.012019|
|         273|   -6.078496|   -7.834006|    0.824002|    0.012019|
|         274|   -6.089182|   -7.838718|    0.824003|    0.012019|
|         275|   -6.099914|   -7.843590|    0.824004|    0.012019|
|         276|   -6.110608|   -7.848627|    0.824005|    0.012019|
|         277|   -6.121172|   -7.853834|    0.824005|    0.012019|
|         278|   -6.131505|   -7.859214|    0.824006|    0.012019|
|         279|   -6.141505|   -7.864770|    0.824006|    0.012019|
|         280|   -6.151075|   -7.870506|    0.824007|    0.012019|
|         281|   -6.160124|   -7.876423|    0.824007|    0.012019|
|         282|   -6.168574|   -7.882523|    0.824008|    0.012019|
|         283|   -6.176363|   -7.888804|    0.824008|    0.012019|
|         284|   -6.183450|   -7.895266|    0.824009|    0.012019|
|         285|   -6.189813|   -7.901909|    0.824009|    0.012019|
|         286|   -6.195454|   -7.908729|    0.824010|    0.012019|
|         287|   -6.200392|   -7.915730|    0.824010|    0.012019|
|         288|   -6.204666|   -7.922908|    0.824010|    0.012019|
|         289|   -6.208330|   -7.930263|    0.824010|    0.012019|
|         290|   -6.211450|   -7.937792|    0.824011|    0.012019|
|         291|   -6.214101|   -7.945496|    0.824011|    0.012019|
|         292|   -6.216359|   -7.953374|    0.824011|    0.012019|
|         293|   -6.218304|   -7.961427|    0.824011|    0.012019|
|         294|   -6.220008|   -7.969660|    0.824011|    0.012019|
|         295|   -6.221542|   -7.978075|    0.824011|    0.012019|
|         296|   -6.222967|   -7.986679|    0.824011|    0.012019|
|         297|   -6.224338|   -7.995477|    0.824011|    0.012018|
|         298|   -6.225699|   -8.004475|    0.824011|    0.012018|
|         299|   -6.227090|   -8.013680|    0.824011|    0.012018|
|         300|   -6.228541|   -8.023096|    0.824011|    0.012018|
|         301|   -6.230074|   -8.032727|    0.824011|    0.012018|
+-----------------------------------------------------------------------+
|Fixed CL Mode                           |Value                         |
+-----------------------------------------------------------------------+
|Current CL                              |0.824011                      |
|Target CL                               |0.824                         |
|Previous AOA                            |2.78913                       |
|Changed AoA by                          |-5.38046e-05                  |
+-----------------------------------------------------------------------+
+----------------------------------------------------------------+
|  Inner_Iter|    rms[Rho]|     rms[nu]|          CL|          CD|
+----------------------------------------------------------------+
|         302|   -4.462535|   -8.024299|    0.824011|    0.012018|
|         303|   -4.847842|   -8.043264|    0.824010|    0.012018|
|         304|   -5.095319|   -8.055974|    0.824010|    0.012018|
|         305|   -5.176592|   -8.067641|    0.824010|    0.012018|
|         306|   -5.231224|   -8.079082|    0.824010|    0.012018|
|         307|   -5.301545|   -8.090455|    0.824010|    0.012018|
|         308|   -5.388159|   -8.101766|    0.824009|    0.012018|
|         309|   -5.477580|   -8.112986|    0.824009|    0.012018|
|         310|   -5.552196|   -8.124065|    0.824009|    0.012018|
|         311|   -5.603564|   -8.134935|    0.824009|    0.012017|
|         312|   -5.634613|   -8.145528|    0.824009|    0.012017|
|         313|   -5.650751|   -8.155806|    0.824008|    0.012017|
|         314|   -5.656818|   -8.165743|    0.824008|    0.012017|
|         315|   -5.658688|   -8.175309|    0.824008|    0.012017|
|         316|   -5.662319|   -8.184451|    0.824008|    0.012017|
|         317|   -5.671436|   -8.193101|    0.824008|    0.012017|
|         318|   -5.686627|   -8.201196|    0.824008|    0.012017|
|         319|   -5.705896|   -8.208689|    0.824008|    0.012017|
|         320|   -5.726059|   -8.215551|    0.824008|    0.012017|
|         321|   -5.744481|   -8.221771|    0.824007|    0.012017|
|         322|   -5.760294|   -8.227346|    0.824007|    0.012018|
|         323|   -5.774319|   -8.232286|    0.824007|    0.012018|
|         324|   -5.787967|   -8.236612|    0.824007|    0.012018|
|         325|   -5.802208|   -8.240368|    0.824007|    0.012018|
|         326|   -5.817227|   -8.243617|    0.824007|    0.012018|
|         327|   -5.832618|   -8.246433|    0.824007|    0.012018|
|         328|   -5.847728|   -8.248894|    0.824008|    0.012018|
|         329|   -5.861905|   -8.251087|    0.824008|    0.012018|
|         330|   -5.874617|   -8.253101|    0.824008|    0.012018|
|         331|   -5.885550|   -8.255001|    0.824008|    0.012018|
|         332|   -5.894712|   -8.256850|    0.824008|    0.012018|
|         333|   -5.902489|   -8.258697|    0.824008|    0.012018|
|         334|   -5.909585|   -8.260578|    0.824008|    0.012018|
|         335|   -5.916847|   -8.262512|    0.824008|    0.012018|
|         336|   -5.925049|   -8.264510|    0.824009|    0.012018|
|         337|   -5.934741|   -8.266563|    0.824009|    0.012018|
|         338|   -5.946156|   -8.268656|    0.824009|    0.012018|
|         339|   -5.959190|   -8.270761|    0.824009|    0.012018|
|         340|   -5.973417|   -8.272843|    0.824009|    0.012018|
|         341|   -5.988150|   -8.274864|    0.824009|    0.012018|
|         342|   -6.002572|   -8.276780|    0.824009|    0.012018|
|         343|   -6.015924|   -8.278551|    0.824010|    0.012018|
|         344|   -6.027724|   -8.280137|    0.824010|    0.012018|
|         345|   -6.037912|   -8.281503|    0.824010|    0.012018|
|         346|   -6.046861|   -8.282621|    0.824010|    0.012018|
|         347|   -6.055238|   -8.283467|    0.824010|    0.012018|
|         348|   -6.063794|   -8.284030|    0.824010|    0.012018|
|         349|   -6.073161|   -8.284302|    0.824010|    0.012018|
|         350|   -6.083732|   -8.284286|    0.824010|    0.012018|
|         351|   -6.095607|   -8.283992|    0.824010|    0.012018|
|         352|   -6.108618|   -8.283444|    0.824010|    0.012018|
|         353|   -6.122389|   -8.282659|    0.824010|    0.012019|
|         354|   -6.136433|   -8.281666|    0.824009|    0.012019|
|         355|   -6.150258|   -8.280499|    0.824009|    0.012019|
|         356|   -6.163464|   -8.279192|    0.824009|    0.012019|
|         357|   -6.175815|   -8.277782|    0.824009|    0.012019|
|         358|   -6.187262|   -8.276302|    0.824009|    0.012019|
|         359|   -6.197912|   -8.274783|    0.824008|    0.012019|
|         360|   -6.207971|   -8.273253|    0.824008|    0.012019|
|         361|   -6.217674|   -8.271730|    0.824008|    0.012019|
|         362|   -6.227226|   -8.270233|    0.824007|    0.012019|
|         363|   -6.236767|   -8.268773|    0.824007|    0.012019|
|         364|   -6.246369|   -8.267357|    0.824007|    0.012019|
|         365|   -6.256038|   -8.265985|    0.824006|    0.012019|
|         366|   -6.265742|   -8.264654|    0.824006|    0.012019|
|         367|   -6.275430|   -8.263356|    0.824005|    0.012019|
|         368|   -6.285048|   -8.262080|    0.824005|    0.012019|
|         369|   -6.294552|   -8.260813|    0.824004|    0.012019|
|         370|   -6.303911|   -8.259544|    0.824004|    0.012019|
|         371|   -6.313096|   -8.258258|    0.824004|    0.012019|
|         372|   -6.322084|   -8.256944|    0.824003|    0.012018|
|         373|   -6.330841|   -8.255595|    0.824003|    0.012018|
|         374|   -6.339327|   -8.254205|    0.824003|    0.012018|
|         375|   -6.347488|   -8.252777|    0.824002|    0.012018|
|         376|   -6.355266|   -8.251313|    0.824002|    0.012018|
|         377|   -6.362597|   -8.249823|    0.824002|    0.012018|
|         378|   -6.369427|   -8.248319|    0.824002|    0.012018|
|         379|   -6.375705|   -8.246821|    0.824001|    0.012018|
|         380|   -6.381398|   -8.245351|    0.824001|    0.012018|
|         381|   -6.386487|   -8.243936|    0.824001|    0.012018|
|         382|   -6.390972|   -8.242607|    0.824001|    0.012018|
|         383|   -6.394867|   -8.241394|    0.824001|    0.012018|
|         384|   -6.398204|   -8.240330|    0.824001|    0.012018|
|         385|   -6.401027|   -8.239448|    0.824001|    0.012018|
|         386|   -6.403391|   -8.238778|    0.824001|    0.012018|
|         387|   -6.405360|   -8.238347|    0.824001|    0.012018|
|         388|   -6.407002|   -8.238181|    0.824001|    0.012018|
|         389|   -6.408391|   -8.238302|    0.824002|    0.012018|
|         390|   -6.409602|   -8.238726|    0.824002|    0.012018|
|         391|   -6.410707|   -8.239466|    0.824002|    0.012018|
|         392|   -6.411778|   -8.240530|    0.824002|    0.012018|
|         393|   -6.412880|   -8.241918|    0.824003|    0.012018|
|         394|   -6.414074|   -8.243629|    0.824003|    0.012018|
|         395|   -6.415410|   -8.245656|    0.824003|    0.012018|
|         396|   -6.416936|   -8.247986|    0.824003|    0.012018|
|         397|   -6.418689|   -8.250604|    0.824004|    0.012018|
|         398|   -6.420698|   -8.253490|    0.824004|    0.012018|
|         399|   -6.422986|   -8.256624|    0.824005|    0.012018|
|         400|   -6.425567|   -8.259980|    0.824005|    0.012018|
|         401|   -6.428451|   -8.263533|    0.824005|    0.012017|
+-----------------------------------------------------------------------+
|Fixed CL Mode                           |Value                         |
+-----------------------------------------------------------------------+
|Current CL                              |0.824005                      |
|Target CL                               |0.824                         |
|Previous AOA                            |2.78908                       |
|Changed AoA by                          |-2.47409e-05                  |
+-----------------------------------------------------------------------+
+----------------------------------------------------------------+
|  Inner_Iter|    rms[Rho]|     rms[nu]|          CL|          CD|
+----------------------------------------------------------------+
|         402|   -4.799638|   -8.255500|    0.824006|    0.012017|
|         403|   -5.181754|   -8.265084|    0.824006|    0.012017|
|         404|   -5.420544|   -8.270774|    0.824007|    0.012017|
|         405|   -5.497790|   -8.275777|    0.824007|    0.012017|
|         406|   -5.551440|   -8.280575|    0.824007|    0.012017|
|         407|   -5.620584|   -8.285274|    0.824008|    0.012017|
|         408|   -5.705319|   -8.289913|    0.824008|    0.012017|
|         409|   -5.793247|   -8.294510|    0.824009|    0.012017|
|         410|   -5.868933|   -8.299078|    0.824009|    0.012017|
|         411|   -5.925002|   -8.303616|    0.824009|    0.012017|
|         412|   -5.963155|   -8.308124|    0.824010|    0.012017|
|         413|   -5.986682|   -8.312616|    0.824010|    0.012017|
|         414|   -5.998693|   -8.317112|    0.824010|    0.012017|
|         415|   -6.004381|   -8.321630|    0.824011|    0.012017|
|         416|   -6.010046|   -8.326178|    0.824011|    0.012017|
|         417|   -6.020161|   -8.330760|    0.824011|    0.012017|
|         418|   -6.035982|   -8.335382|    0.824012|    0.012017|
|         419|   -6.056019|   -8.340056|    0.824012|    0.012017|
|         420|   -6.077470|   -8.344798|    0.824012|    0.012017|
|         421|   -6.097962|   -8.349622|    0.824012|    0.012017|
|         422|   -6.116729|   -8.354535|    0.824013|    0.012017|
|         423|   -6.134522|   -8.359540|    0.824013|    0.012017|
|         424|   -6.152532|   -8.364635|    0.824013|    0.012017|
|         425|   -6.171373|   -8.369816|    0.824013|    0.012017|
|         426|   -6.190740|   -8.375075|    0.824014|    0.012017|
|         427|   -6.209654|   -8.380409|    0.824014|    0.012017|
|         428|   -6.226930|   -8.385807|    0.824014|    0.012017|
|         429|   -6.241570|   -8.391264|    0.824014|    0.012017|
|         430|   -6.252999|   -8.396771|    0.824014|    0.012017|
|         431|   -6.261167|   -8.402326|    0.824014|    0.012017|
|         432|   -6.266560|   -8.407920|    0.824014|    0.012017|
|         433|   -6.270100|   -8.413546|    0.824014|    0.012017|
|         434|   -6.272916|   -8.419197|    0.824014|    0.012017|
|         435|   -6.276075|   -8.424863|    0.824014|    0.012017|
|         436|   -6.280357|   -8.430534|    0.824015|    0.012017|
|         437|   -6.286153|   -8.436200|    0.824015|    0.012017|
|         438|   -6.293443|   -8.441852|    0.824015|    0.012017|
|         439|   -6.301844|   -8.447479|    0.824014|    0.012017|
|         440|   -6.310693|   -8.453075|    0.824014|    0.012017|
|         441|   -6.319174|   -8.458634|    0.824014|    0.012017|
|         442|   -6.326499|   -8.464154|    0.824014|    0.012017|
|         443|   -6.332114|   -8.469632|    0.824014|    0.012017|
|         444|   -6.335860|   -8.475071|    0.824014|    0.012017|
|         445|   -6.338015|   -8.480472|    0.824014|    0.012017|
|         446|   -6.339191|   -8.485840|    0.824014|    0.012017|
|         447|   -6.340139|   -8.491179|    0.824014|    0.012017|
|         448|   -6.341553|   -8.496494|    0.824014|    0.012017|
|         449|   -6.343929|   -8.501791|    0.824014|    0.012017|
|         450|   -6.347514|   -8.507074|    0.824014|    0.012017|
|         451|   -6.352312|   -8.512348|    0.824013|    0.012017|
|         452|   -6.358143|   -8.517625|    0.824013|    0.012017|
|         453|   -6.364713|   -8.522904|    0.824013|    0.012017|
|         454|   -6.371702|   -8.528191|    0.824013|    0.012017|
|         455|   -6.378835|   -8.533494|    0.824013|    0.012017|
|         456|   -6.385933|   -8.538818|    0.824013|    0.012017|
|         457|   -6.392934|   -8.544171|    0.824012|    0.012017|
|         458|   -6.399881|   -8.549559|    0.824012|    0.012017|
|         459|   -6.406898|   -8.554988|    0.824012|    0.012017|
|         460|   -6.414137|   -8.560464|    0.824012|    0.012017|
|         461|   -6.421752|   -8.565993|    0.824012|    0.012017|
|         462|   -6.429861|   -8.571580|    0.824012|    0.012017|
|         463|   -6.438542|   -8.577228|    0.824011|    0.012017|
|         464|   -6.447828|   -8.582942|    0.824011|    0.012017|
|         465|   -6.457717|   -8.588727|    0.824011|    0.012017|
|         466|   -6.468185|   -8.594589|    0.824011|    0.012017|
|         467|   -6.479197|   -8.600532|    0.824010|    0.012017|
|         468|   -6.490719|   -8.606564|    0.824010|    0.012017|
|         469|   -6.502720|   -8.612694|    0.824010|    0.012017|
|         470|   -6.515173|   -8.618929|    0.824010|    0.012017|
|         471|   -6.528054|   -8.625278|    0.824010|    0.012017|
|         472|   -6.541331|   -8.631753|    0.824009|    0.012017|
|         473|   -6.554968|   -8.638361|    0.824009|    0.012017|
|         474|   -6.568910|   -8.645109|    0.824009|    0.012017|
|         475|   -6.583086|   -8.652003|    0.824009|    0.012017|
|         476|   -6.597405|   -8.659043|    0.824009|    0.012017|
|         477|   -6.611759|   -8.666226|    0.824008|    0.012017|
|         478|   -6.626019|   -8.673542|    0.824008|    0.012017|
|         479|   -6.640046|   -8.680973|    0.824008|    0.012017|
|         480|   -6.653686|   -8.688495|    0.824008|    0.012017|
|         481|   -6.666782|   -8.696075|    0.824008|    0.012017|
|         482|   -6.679177|   -8.703669|    0.824008|    0.012017|
|         483|   -6.690719|   -8.711230|    0.824007|    0.012017|
|         484|   -6.701273|   -8.718700|    0.824007|    0.012017|
|         485|   -6.710724|   -8.726019|    0.824007|    0.012017|
|         486|   -6.718988|   -8.733122|    0.824007|    0.012017|
|         487|   -6.726015|   -8.739949|    0.824007|    0.012017|
|         488|   -6.731792|   -8.746445|    0.824007|    0.012017|
|         489|   -6.736346|   -8.752562|    0.824007|    0.012017|
|         490|   -6.739739|   -8.758269|    0.824007|    0.012017|
|         491|   -6.742067|   -8.763550|    0.824007|    0.012017|
|         492|   -6.743445|   -8.768410|    0.824007|    0.012017|
|         493|   -6.744007|   -8.772875|    0.824007|    0.012017|
|         494|   -6.743896|   -8.776990|    0.824007|    0.012017|
|         495|   -6.743255|   -8.780819|    0.824007|    0.012017|
|         496|   -6.742222|   -8.784443|    0.824007|    0.012017|
|         497|   -6.740927|   -8.787951|    0.824007|    0.012017|
|         498|   -6.739491|   -8.791439|    0.824007|    0.012017|
|         499|   -6.738018|   -8.795006|    0.824007|    0.012017|
|         500|   -6.736602|   -8.798744|    0.824007|    0.012017|
|         501|   -6.735321|   -8.802738|    0.824007|    0.012016|
+-----------------------------------------------------------------------+
|Fixed CL Mode                           |Value                         |
+-----------------------------------------------------------------------+
|Current CL                              |0.824007                      |
|Target CL                               |0.824                         |
|Previous AOA                            |2.78905                       |
|Changed AoA by                          |-3.45956e-05                  |
+-----------------------------------------------------------------------+
+----------------------------------------------------------------+
|  Inner_Iter|    rms[Rho]|     rms[nu]|          CL|          CD|
+----------------------------------------------------------------+
|         502|   -4.654282|   -8.627022|    0.824007|    0.012016|
|         503|   -5.037671|   -8.702475|    0.824007|    0.012016|
|         504|   -5.278704|   -8.732888|    0.824007|    0.012016|
|         505|   -5.356201|   -8.753128|    0.824007|    0.012016|
|         506|   -5.409730|   -8.769927|    0.824007|    0.012016|
|         507|   -5.479436|   -8.784947|    0.824008|    0.012016|
|         508|   -5.565801|   -8.798703|    0.824008|    0.012016|
|         509|   -5.656612|   -8.811477|    0.824008|    0.012016|
|         510|   -5.735997|   -8.823370|    0.824008|    0.012016|
|         511|   -5.795555|   -8.834231|    0.824008|    0.012016|
|         512|   -5.836182|   -8.843920|    0.824008|    0.012016|
|         513|   -5.860859|   -8.852454|    0.824008|    0.012016|
|         514|   -5.872828|   -8.860040|    0.824008|    0.012016|
|         515|   -5.877855|   -8.866820|    0.824008|    0.012016|
|         516|   -5.882905|   -8.872709|    0.824008|    0.012016|
|         517|   -5.892837|   -8.877517|    0.824009|    0.012016|
|         518|   -5.908975|   -8.881119|    0.824009|    0.012016|
|         519|   -5.929667|   -8.883545|    0.824009|    0.012016|
|         520|   -5.951827|   -8.884943|    0.824009|    0.012016|
|         521|   -5.972814|   -8.885472|    0.824009|    0.012016|
|         522|   -5.991766|   -8.885242|    0.824009|    0.012016|
|         523|   -6.009533|   -8.884272|    0.824009|    0.012016|
|         524|   -6.027501|   -8.882552|    0.824009|    0.012016|
|         525|   -6.046463|   -8.880089|    0.824009|    0.012016|
|         526|   -6.066233|   -8.876949|    0.824009|    0.012016|
|         527|   -6.085895|   -8.873177|    0.824009|    0.012016|
|         528|   -6.104275|   -8.868888|    0.824009|    0.012016|
|         529|   -6.120342|   -8.864244|    0.824009|    0.012016|
|         530|   -6.133436|   -8.859380|    0.824009|    0.012016|
|         531|   -6.143394|   -8.854406|    0.824009|    0.012016|
|         532|   -6.150611|   -8.849421|    0.824009|    0.012016|
|         533|   -6.155980|   -8.844496|    0.824009|    0.012016|
|         534|   -6.160688|   -8.839674|    0.824009|    0.012016|
|         535|   -6.165917|   -8.834965|    0.824009|    0.012016|
|         536|   -6.172598|   -8.830359|    0.824009|    0.012016|
|         537|   -6.181260|   -8.825826|    0.824009|    0.012016|
|         538|   -6.191984|   -8.821330|    0.824009|    0.012016|
|         539|   -6.204420|   -8.816830|    0.824009|    0.012016|
|         540|   -6.217833|   -8.812288|    0.824009|    0.012016|
|         541|   -6.231212|   -8.807671|    0.824009|    0.012016|
|         542|   -6.243464|   -8.802956|    0.824009|    0.012016|
|         543|   -6.253685|   -8.798129|    0.824008|    0.012016|
|         544|   -6.261442|   -8.793185|    0.824008|    0.012016|
|         545|   -6.266904|   -8.788128|    0.824008|    0.012017|
|         546|   -6.270772|   -8.782962|    0.824008|    0.012017|
|         547|   -6.274026|   -8.777694|    0.824008|    0.012017|
|         548|   -6.277630|   -8.772333|    0.824008|    0.012017|
|         549|   -6.282317|   -8.766889|    0.824008|    0.012017|
|         550|   -6.288483|   -8.761368|    0.824008|    0.012017|
|         551|   -6.296183|   -8.755772|    0.824007|    0.012017|
|         552|   -6.305188|   -8.750149|    0.824007|    0.012017|
|         553|   -6.315084|   -8.744484|    0.824007|    0.012017|
|         554|   -6.325380|   -8.738797|    0.824007|    0.012017|
|         555|   -6.335621|   -8.733107|    0.824007|    0.012017|
|         556|   -6.345480|   -8.727443|    0.824007|    0.012017|
|         557|   -6.354806|   -8.721838|    0.824006|    0.012017|
|         558|   -6.363625|   -8.716331|    0.824006|    0.012017|
|         559|   -6.372102|   -8.710961|    0.824006|    0.012017|
|         560|   -6.380474|   -8.705773|    0.824006|    0.012017|
|         561|   -6.388983|   -8.700811|    0.824005|    0.012017|
|         562|   -6.397831|   -8.696122|    0.824005|    0.012017|
|         563|   -6.407153|   -8.691752|    0.824005|    0.012017|
|         564|   -6.417014|   -8.687743|    0.824005|    0.012017|
|         565|   -6.427422|   -8.684140|    0.824004|    0.012017|
|         566|   -6.438350|   -8.680977|    0.824004|    0.012017|
|         567|   -6.449754|   -8.678287|    0.824004|    0.012017|
|         568|   -6.461591|   -8.676095|    0.824003|    0.012017|
|         569|   -6.473826|   -8.674417|    0.824003|    0.012017|
|         570|   -6.486437|   -8.673261|    0.824003|    0.012017|
|         571|   -6.499405|   -8.672622|    0.824003|    0.012017|
|         572|   -6.512712|   -8.672488|    0.824002|    0.012017|
|         573|   -6.526330|   -8.672829|    0.824002|    0.012017|
|         574|   -6.540214|   -8.673606|    0.824002|    0.012017|
|         575|   -6.554301|   -8.674767|    0.824002|    0.012017|
|         576|   -6.568504|   -8.676246|    0.824001|    0.012017|
|         577|   -6.582717|   -8.677966|    0.824001|    0.012017|
|         578|   -6.596818|   -8.679843|    0.824001|    0.012017|
|         579|   -6.610671|   -8.681782|    0.824001|    0.012017|
|         580|   -6.624136|   -8.683688|    0.824001|    0.012017|
|         581|   -6.637070|   -8.685465|    0.824000|    0.012017|
|         582|   -6.649339|   -8.687023|    0.824000|    0.012017|
|         583|   -6.660819|   -8.688280|    0.824000|    0.012016|
|         584|   -6.671404|   -8.689171|    0.824000|    0.012016|
|         585|   -6.681015|   -8.689648|    0.824000|    0.012016|
|         586|   -6.689599|   -8.689684|    0.824000|    0.012016|
|         587|   -6.697138|   -8.689278|    0.824000|    0.012016|
|         588|   -6.703647|   -8.688448|    0.824000|    0.012016|
|         589|   -6.709170|   -8.687237|    0.824000|    0.012016|
|         590|   -6.713780|   -8.685703|    0.824000|    0.012016|
|         591|   -6.717573|   -8.683920|    0.824000|    0.012016|
|         592|   -6.720657|   -8.681972|    0.824000|    0.012016|
|         593|   -6.723150|   -8.679946|    0.824000|    0.012016|
|         594|   -6.725168|   -8.677930|    0.824000|    0.012016|
|         595|   -6.726826|   -8.676009|    0.824000|    0.012016|
|         596|   -6.728227|   -8.674258|    0.824001|    0.012016|
|         597|   -6.729463|   -8.672742|    0.824001|    0.012016|
|         598|   -6.730615|   -8.671515|    0.824001|    0.012016|
|         599|   -6.731749|   -8.670616|    0.824001|    0.012016|
|         600|   -6.732919|   -8.670069|    0.824001|    0.012016|
|         601|   -6.734166|   -8.669884|    0.824001|    0.012016|
+-----------------------------------------------------------------------+
|Fixed CL Mode                           |Value                         |
+-----------------------------------------------------------------------+
|Current CL                              |0.824001                      |
|Target CL                               |0.824                         |
|Previous AOA                            |2.78902                       |
|Changed AoA by                          |-6.33769e-06                  |
+-----------------------------------------------------------------------+
+----------------------------------------------------------------+
|  Inner_Iter|    rms[Rho]|     rms[nu]|          CL|          CD|
+----------------------------------------------------------------+
|         602|   -5.390953|   -8.664740|    0.824002|    0.012016|
|         603|   -5.769950|   -8.667801|    0.824002|    0.012016|
|         604|   -5.997390|   -8.669424|    0.824002|    0.012016|
|         605|   -6.066179|   -8.670965|    0.824002|    0.012016|
|         606|   -6.114841|   -8.672572|    0.824003|    0.012016|
|         607|   -6.178698|   -8.674234|    0.824003|    0.012016|
|         608|   -6.256584|   -8.675909|    0.824003|    0.012016|
|         609|   -6.336991|   -8.677548|    0.824003|    0.012016|
|         610|   -6.407229|   -8.679093|    0.824003|    0.012016|
|         611|   -6.461864|   -8.680486|    0.824004|    0.012016|
|         612|   -6.502026|   -8.681669|    0.824004|    0.012016|
|         613|   -6.529395|   -8.682599|    0.824004|    0.012016|
|         614|   -6.545446|   -8.683244|    0.824004|    0.012016|
|         615|   -6.553903|   -8.683584|    0.824005|    0.012016|
|         616|   -6.560182|   -8.683610|    0.824005|    0.012016|
|         617|   -6.568612|   -8.683328|    0.824005|    0.012016|
|         618|   -6.580852|   -8.682759|    0.824005|    0.012016|
|         619|   -6.596204|   -8.681938|    0.824005|    0.012016|
|         620|   -6.612921|   -8.680912|    0.824005|    0.012016|
|         621|   -6.629607|   -8.679736|    0.824005|    0.012016|
|         622|   -6.645966|   -8.678467|    0.824006|    0.012016|
|         623|   -6.662574|   -8.677164|    0.824006|    0.012016|
|         624|   -6.680067|   -8.675885|    0.824006|    0.012016|
|         625|   -6.698480|   -8.674686|    0.824006|    0.012016|
|         626|   -6.717097|   -8.673619|    0.824006|    0.012016|
|         627|   -6.734748|   -8.672731|    0.824006|    0.012016|
|         628|   -6.750280|   -8.672061|    0.824006|    0.012016|
|         629|   -6.762931|   -8.671645|    0.824006|    0.012016|
|         630|   -6.772512|   -8.671506|    0.824006|    0.012016|
|         631|   -6.779379|   -8.671661|    0.824006|    0.012016|
|         632|   -6.784290|   -8.672117|    0.824006|    0.012016|
|         633|   -6.788210|   -8.672873|    0.824006|    0.012016|
|         634|   -6.792090|   -8.673919|    0.824006|    0.012016|
|         635|   -6.796676|   -8.675237|    0.824006|    0.012016|
|         636|   -6.802391|   -8.676803|    0.824006|    0.012016|
|         637|   -6.809289|   -8.678585|    0.824006|    0.012016|
|         638|   -6.817077|   -8.680548|    0.824006|    0.012016|
|         639|   -6.825184|   -8.682654|    0.824006|    0.012016|
|         640|   -6.832859|   -8.684862|    0.824006|    0.012016|
|         641|   -6.839321|   -8.687132|    0.824006|    0.012016|
|         642|   -6.843918|   -8.689423|    0.824006|    0.012016|
|         643|   -6.846300|   -8.691698|    0.824006|    0.012016|
|         644|   -6.846499|   -8.693922|    0.824006|    0.012016|
|         645|   -6.844907|   -8.696063|    0.824006|    0.012016|
|         646|   -6.842144|   -8.698096|    0.824006|    0.012016|
|         647|   -6.838882|   -8.699999|    0.824006|    0.012016|
|         648|   -6.835696|   -8.701754|    0.824006|    0.012016|
|         649|   -6.832974|   -8.703349|    0.824006|    0.012016|
|         650|   -6.830902|   -8.704777|    0.824006|    0.012016|
|         651|   -6.829492|   -8.706034|    0.824005|    0.012016|
|         652|   -6.828640|   -8.707116|    0.824005|    0.012016|
|         653|   -6.828187|   -8.708023|    0.824005|    0.012016|
|         654|   -6.827985|   -8.708757|    0.824005|    0.012016|
|         655|   -6.827930|   -8.709320|    0.824005|    0.012016|
|         656|   -6.827989|   -8.709716|    0.824005|    0.012017|
|         657|   -6.828193|   -8.709947|    0.824005|    0.012017|
|         658|   -6.828623|   -8.710015|    0.824005|    0.012017|
|         659|   -6.829389|   -8.709921|    0.824005|    0.012017|
|         660|   -6.830600|   -8.709667|    0.824005|    0.012017|
|         661|   -6.832354|   -8.709255|    0.824005|    0.012017|
|         662|   -6.834721|   -8.708686|    0.824005|    0.012017|
|         663|   -6.837747|   -8.707967|    0.824005|    0.012017|
|         664|   -6.841451|   -8.707102|    0.824005|    0.012017|
|         665|   -6.845839|   -8.706102|    0.824005|    0.012017|
|         666|   -6.850903|   -8.704978|    0.824005|    0.012017|
|         667|   -6.856634|   -8.703748|    0.824005|    0.012017|
|         668|   -6.863023|   -8.702429|    0.824004|    0.012017|
|         669|   -6.870060|   -8.701044|    0.824004|    0.012017|
|         670|   -6.877738|   -8.699617|    0.824004|    0.012017|
|         671|   -6.886049|   -8.698177|    0.824004|    0.012017|
|         672|   -6.894980|   -8.696750|    0.824004|    0.012017|
|         673|   -6.904516|   -8.695365|    0.824004|    0.012017|
|         674|   -6.914632|   -8.694051|    0.824004|    0.012017|
|         675|   -6.925296|   -8.692832|    0.824004|    0.012017|
|         676|   -6.936464|   -8.691732|    0.824004|    0.012017|
|         677|   -6.948085|   -8.690772|    0.824004|    0.012017|
|         678|   -6.960095|   -8.689967|    0.824004|    0.012017|
|         679|   -6.972421|   -8.689328|    0.824004|    0.012017|
|         680|   -6.984979|   -8.688863|    0.824004|    0.012017|
|         681|   -6.997677|   -8.688572|    0.824004|    0.012017|
|         682|   -7.010411|   -8.688451|    0.824004|    0.012017|
|         683|   -7.023071|   -8.688490|    0.824004|    0.012017|
|         684|   -7.035540|   -8.688677|    0.824004|    0.012017|
|         685|   -7.047699|   -8.688993|    0.824003|    0.012017|
|         686|   -7.059427|   -8.689418|    0.824003|    0.012017|
|         687|   -7.070607|   -8.689927|    0.824003|    0.012017|
|         688|   -7.081132|   -8.690497|    0.824003|    0.012017|
|         689|   -7.090907|   -8.691101|    0.824003|    0.012017|
|         690|   -7.099855|   -8.691716|    0.824003|    0.012017|
|         691|   -7.107921|   -8.692319|    0.824003|    0.012017|
|         692|   -7.115074|   -8.692890|    0.824003|    0.012017|
|         693|   -7.121310|   -8.693413|    0.824003|    0.012017|
|         694|   -7.126649|   -8.693876|    0.824003|    0.012017|
|         695|   -7.131135|   -8.694271|    0.824003|    0.012017|
|         696|   -7.134833|   -8.694594|    0.824003|    0.012017|
|         697|   -7.137826|   -8.694849|    0.824003|    0.012017|
|         698|   -7.140206|   -8.695039|    0.824003|    0.012017|
|         699|   -7.142074|   -8.695175|    0.824003|    0.012017|
|         700|   -7.143536|   -8.695268|    0.824003|    0.012017|
|         701|   -7.144693|   -8.695331|    0.824003|    0.012017|
+-----------------------------------------------------------------------+
|Fixed CL Mode                           |Value                         |
+-----------------------------------------------------------------------+
|Current CL                              |0.824003                      |
|Target CL                               |0.824                         |
|Previous AOA                            |2.78901                       |
|Changed AoA by                          |-1.58514e-05                  |
+-----------------------------------------------------------------------+
+----------------------------------------------------------------+
|  Inner_Iter|    rms[Rho]|     rms[nu]|          CL|          CD|
+----------------------------------------------------------------+
|         702|   -4.993337|   -8.663036|    0.824003|    0.012017|
|         703|   -5.377372|   -8.678867|    0.824003|    0.012017|
|         704|   -5.619596|   -8.683695|    0.824003|    0.012017|
|         705|   -5.697130|   -8.686376|    0.824003|    0.012017|
|         706|   -5.750333|   -8.688320|    0.824003|    0.012017|
|         707|   -5.819851|   -8.689877|    0.824003|    0.012017|
|         708|   -5.906219|   -8.691167|    0.824003|    0.012017|
|         709|   -5.997180|   -8.692269|    0.824003|    0.012017|
|         710|   -6.076753|   -8.693231|    0.824003|    0.012017|
|         711|   -6.136420|   -8.694076|    0.824004|    0.012017|
|         712|   -6.177033|   -8.694818|    0.824004|    0.012017|
|         713|   -6.201598|   -8.695504|    0.824004|    0.012017|
|         714|   -6.213412|   -8.696182|    0.824004|    0.012017|
|         715|   -6.218312|   -8.696886|    0.824004|    0.012017|
|         716|   -6.223311|   -8.697629|    0.824004|    0.012017|
|         717|   -6.233281|   -8.698402|    0.824004|    0.012017|
|         718|   -6.249524|   -8.699201|    0.824004|    0.012017|
|         719|   -6.270343|   -8.700030|    0.824004|    0.012017|
|         720|   -6.292578|   -8.700899|    0.824004|    0.012017|
|         721|   -6.313521|   -8.701814|    0.824004|    0.012017|
|         722|   -6.332271|   -8.702777|    0.824004|    0.012017|
|         723|   -6.349684|   -8.703777|    0.824004|    0.012017|
|         724|   -6.367176|   -8.704805|    0.824004|    0.012017|
|         725|   -6.385578|   -8.705850|    0.824004|    0.012017|
|         726|   -6.404741|   -8.706905|    0.824004|    0.012017|
|         727|   -6.423787|   -8.707971|    0.824004|    0.012017|
|         728|   -6.441587|   -8.709048|    0.824004|    0.012017|
|         729|   -6.457153|   -8.710142|    0.824004|    0.012017|
|         730|   -6.469857|   -8.711254|    0.824004|    0.012017|
|         731|   -6.479555|   -8.712392|    0.824004|    0.012017|
|         732|   -6.486641|   -8.713563|    0.824004|    0.012017|
|         733|   -6.491999|   -8.714768|    0.824004|    0.012017|
|         734|   -6.496798|   -8.716014|    0.824004|    0.012017|
|         735|   -6.502214|   -8.717291|    0.824004|    0.012017|
|         736|   -6.509174|   -8.718595|    0.824004|    0.012017|
|         737|   -6.518222|   -8.719919|    0.824005|    0.012017|
|         738|   -6.529462|   -8.721257|    0.824005|    0.012017|
|         739|   -6.542568|   -8.722600|    0.824005|    0.012017|
|         740|   -6.556829|   -8.723938|    0.824005|    0.012017|
|         741|   -6.571246|   -8.725265|    0.824005|    0.012017|
|         742|   -6.584707|   -8.726574|    0.824005|    0.012017|
|         743|   -6.596266|   -8.727861|    0.824005|    0.012017|
|         744|   -6.605422|   -8.729123|    0.824005|    0.012017|
|         745|   -6.612282|   -8.730358|    0.824005|    0.012017|
|         746|   -6.617508|   -8.731566|    0.824005|    0.012017|
|         747|   -6.622074|   -8.732748|    0.824005|    0.012017|
|         748|   -6.626972|   -8.733905|    0.824005|    0.012017|
|         749|   -6.632971|   -8.735037|    0.824005|    0.012017|
|         750|   -6.640507|   -8.736156|    0.824005|    0.012017|
|         751|   -6.649661|   -8.737264|    0.824005|    0.012017|
|         752|   -6.660213|   -8.738366|    0.824005|    0.012017|
|         753|   -6.671733|   -8.739462|    0.824004|    0.012017|
|         754|   -6.683695|   -8.740560|    0.824004|    0.012017|
|         755|   -6.695596|   -8.741667|    0.824004|    0.012017|
|         756|   -6.707053|   -8.742792|    0.824004|    0.012017|
|         757|   -6.717871|   -8.743948|    0.824004|    0.012017|
|         758|   -6.728053|   -8.745147|    0.824004|    0.012017|
|         759|   -6.737756|   -8.746405|    0.824004|    0.012017|
|         760|   -6.747230|   -8.747735|    0.824004|    0.012017|
|         761|   -6.756737|   -8.749156|    0.824004|    0.012017|
|         762|   -6.766503|   -8.750684|    0.824004|    0.012017|
|         763|   -6.776681|   -8.752337|    0.824004|    0.012017|
|         764|   -6.787349|   -8.754133|    0.824004|    0.012017|
|         765|   -6.798524|   -8.756090|    0.824004|    0.012017|
|         766|   -6.810182|   -8.758224|    0.824004|    0.012017|
|         767|   -6.822283|   -8.760549|    0.824004|    0.012017|
|         768|   -6.834791|   -8.763078|    0.824004|    0.012017|
|         769|   -6.847684|   -8.765817|    0.824003|    0.012017|
|         770|   -6.860953|   -8.768772|    0.824003|    0.012017|
|         771|   -6.874604|   -8.771940|    0.824003|    0.012017|
|         772|   -6.888645|   -8.775316|    0.824003|    0.012017|
|         773|   -6.903079|   -8.778885|    0.824003|    0.012017|
|         774|   -6.917892|   -8.782629|    0.824003|    0.012017|
|         775|   -6.933054|   -8.786523|    0.824003|    0.012017|
|         776|   -6.948515|   -8.790535|    0.824003|    0.012017|
|         777|   -6.964201|   -8.794630|    0.824003|    0.012017|
|         778|   -6.980023|   -8.798766|    0.824003|    0.012017|
|         779|   -6.995876|   -8.802901|    0.824003|    0.012017|
|         780|   -7.011644|   -8.806989|    0.824003|    0.012017|
|         781|   -7.027202|   -8.810987|    0.824003|    0.012017|
|         782|   -7.042424|   -8.814853|    0.824003|    0.012017|
|         783|   -7.057181|   -8.818550|    0.824003|    0.012017|
|         784|   -7.071347|   -8.822046|    0.824003|    0.012017|
|         785|   -7.084808|   -8.825318|    0.824003|    0.012017|
|         786|   -7.097462|   -8.828353|    0.824003|    0.012017|
|         787|   -7.109227|   -8.831146|    0.824003|    0.012017|
|         788|   -7.120046|   -8.833703|    0.824003|    0.012017|
|         789|   -7.129889|   -8.836041|    0.824003|    0.012017|
|         790|   -7.138754|   -8.838184|    0.824003|    0.012017|
|         791|   -7.146668|   -8.840165|    0.824003|    0.012017|
|         792|   -7.153681|   -8.842022|    0.824003|    0.012017|
|         793|   -7.159862|   -8.843798|    0.824003|    0.012017|
|         794|   -7.165291|   -8.845535|    0.824003|    0.012017|
|         795|   -7.170060|   -8.847280|    0.824003|    0.012017|
|         796|   -7.174255|   -8.849074|    0.824003|    0.012017|
|         797|   -7.177965|   -8.850955|    0.824003|    0.012017|
|         798|   -7.181268|   -8.852958|    0.824004|    0.012017|
|         799|   -7.184233|   -8.855111|    0.824004|    0.012017|
|         800|   -7.186922|   -8.857435|    0.824004|    0.012017|
|         801|   -7.189382|   -8.859944|    0.824004|    0.012017|
+-----------------------------------------------------------------------+
|Fixed CL Mode                           |Value                         |
+-----------------------------------------------------------------------+
|Current CL                              |0.824004                      |
|Target CL                               |0.824                         |
|Previous AOA                            |2.78899                       |
|Changed AoA by                          |-1.88168e-05                  |
+-----------------------------------------------------------------------+
+----------------------------------------------------------------+
|  Inner_Iter|    rms[Rho]|     rms[nu]|          CL|          CD|
+----------------------------------------------------------------+
|         802|   -4.918828|   -8.776175|    0.824004|    0.012017|
|         803|   -5.302969|   -8.818029|    0.824004|    0.012017|
|         804|   -5.545916|   -8.833630|    0.824004|    0.012017|
|         805|   -5.624151|   -8.843809|    0.824004|    0.012017|
|         806|   -5.677732|   -8.852161|    0.824004|    0.012017|
|         807|   -5.747516|   -8.859522|    0.824005|    0.012017|
|         808|   -5.834076|   -8.866151|    0.824005|    0.012017|
|         809|   -5.925017|   -8.872195|    0.824005|    0.012017|
|         810|   -6.004149|   -8.877737|    0.824005|    0.012017|
|         811|   -6.062956|   -8.882781|    0.824005|    0.012017|
|         812|   -6.102546|   -8.887343|    0.824005|    0.012017|
|         813|   -6.126210|   -8.891529|    0.824005|    0.012017|
|         814|   -6.137424|   -8.895512|    0.824005|    0.012017|
|         815|   -6.142041|   -8.899414|    0.824005|    0.012017|
|         816|   -6.146976|   -8.903274|    0.824006|    0.012017|
|         817|   -6.156997|   -8.907082|    0.824006|    0.012017|
|         818|   -6.173351|   -8.910828|    0.824006|    0.012017|
|         819|   -6.194326|   -8.914537|    0.824006|    0.012017|
|         820|   -6.216773|   -8.918259|    0.824006|    0.012017|
|         821|   -6.237988|   -8.922030|    0.824006|    0.012017|
|         822|   -6.257066|   -8.925860|    0.824006|    0.012017|
|         823|   -6.274852|   -8.929728|    0.824006|    0.012017|
|         824|   -6.292761|   -8.933600|    0.824006|    0.012017|
|         825|   -6.311627|   -8.937439|    0.824006|    0.012017|
|         826|   -6.331298|   -8.941223|    0.824006|    0.012017|
|         827|   -6.350881|   -8.944952|    0.824006|    0.012017|
|         828|   -6.369211|   -8.948639|    0.824006|    0.012017|
|         829|   -6.385249|   -8.952295|    0.824006|    0.012017|
|         830|   -6.398319|   -8.955935|    0.824006|    0.012017|
|         831|   -6.408240|   -8.959593|    0.824006|    0.012017|
|         832|   -6.415403|   -8.963308|    0.824006|    0.012017|
|         833|   -6.420710|   -8.967094|    0.824006|    0.012017|
|         834|   -6.425368|   -8.970944|    0.824006|    0.012017|
|         835|   -6.430588|   -8.974850|    0.824006|    0.012017|
|         836|   -6.437327|   -8.978802|    0.824006|    0.012017|
|         837|   -6.446140|   -8.982774|    0.824006|    0.012017|
|         838|   -6.457135|   -8.986736|    0.824006|    0.012017|
|         839|   -6.469981|   -8.990661|    0.824006|    0.012017|
|         840|   -6.483957|   -8.994519|    0.824006|    0.012017|
|         841|   -6.498054|   -8.998285|    0.824006|    0.012017|
|         842|   -6.511165|   -9.001945|    0.824006|    0.012017|
|         843|   -6.522351|   -9.005487|    0.824006|    0.012017|
|         844|   -6.531133|   -9.008909|    0.824006|    0.012017|
|         845|   -6.537643|   -9.012214|    0.824006|    0.012017|
|         846|   -6.542562|   -9.015408|    0.824006|    0.012017|
|         847|   -6.546877|   -9.018496|    0.824006|    0.012017|
|         848|   -6.551580|   -9.021486|    0.824006|    0.012017|
|         849|   -6.557439|   -9.024378|    0.824006|    0.012017|
|         850|   -6.564885|   -9.027162|    0.824006|    0.012017|
|         851|   -6.573998|   -9.029880|    0.824006|    0.012017|
|         852|   -6.584561|   -9.032499|    0.824005|    0.012017|
|         853|   -6.596150|   -9.035009|    0.824005|    0.012017|
|         854|   -6.608246|   -9.037387|    0.824005|    0.012017|
|         855|   -6.620356|   -9.039621|    0.824005|    0.012017|
|         856|   -6.632107|   -9.041702|    0.824005|    0.012016|
|         857|   -6.643309|   -9.043624|    0.824005|    0.012016|
|         858|   -6.653966|   -9.045384|    0.824005|    0.012016|
|         859|   -6.664241|   -9.046989|    0.824005|    0.012016|
|         860|   -6.674382|   -9.048445|    0.824005|    0.012016|
|         861|   -6.684654|   -9.049766|    0.824005|    0.012016|
|         862|   -6.695283|   -9.050976|    0.824004|    0.012016|
|         863|   -6.706426|   -9.052104|    0.824004|    0.012016|
|         864|   -6.718160|   -9.053186|    0.824004|    0.012016|
|         865|   -6.730500|   -9.054267|    0.824004|    0.012016|
|         866|   -6.743419|   -9.055396|    0.824004|    0.012016|
|         867|   -6.756869|   -9.056624|    0.824004|    0.012016|
|         868|   -6.770804|   -9.058000|    0.824004|    0.012016|
|         869|   -6.785188|   -9.059572|    0.824003|    0.012016|
|         870|   -6.799998|   -9.061386|    0.824003|    0.012016|
|         871|   -6.815223|   -9.063475|    0.824003|    0.012016|
|         872|   -6.830850|   -9.065866|    0.824003|    0.012016|
|         873|   -6.846859|   -9.068570|    0.824003|    0.012016|
|         874|   -6.863209|   -9.071583|    0.824003|    0.012016|
|         875|   -6.879836|   -9.074886|    0.824003|    0.012017|
|         876|   -6.896650|   -9.078440|    0.824003|    0.012017|
|         877|   -6.913533|   -9.082191|    0.824003|    0.012017|
|         878|   -6.930342|   -9.086066|    0.824002|    0.012017|
|         879|   -6.946916|   -9.089975|    0.824002|    0.012017|
|         880|   -6.963080|   -9.093821|    0.824002|    0.012017|
|         881|   -6.978654|   -9.097492|    0.824002|    0.012017|
|         882|   -6.993457|   -9.100879|    0.824002|    0.012017|
|         883|   -7.007322|   -9.103874|    0.824002|    0.012017|
|         884|   -7.020100|   -9.106381|    0.824002|    0.012017|
|         885|   -7.031668|   -9.108324|    0.824002|    0.012017|
|         886|   -7.041945|   -9.109650|    0.824002|    0.012017|
|         887|   -7.050891|   -9.110339|    0.824002|    0.012017|
|         888|   -7.058511|   -9.110400|    0.824002|    0.012017|
|         889|   -7.064857|   -9.109876|    0.824002|    0.012017|
|         890|   -7.070018|   -9.108843|    0.824002|    0.012017|
|         891|   -7.074117|   -9.107398|    0.824002|    0.012017|
|         892|   -7.077296|   -9.105660|    0.824002|    0.012017|
|         893|   -7.079710|   -9.103758|    0.824002|    0.012017|
|         894|   -7.081514|   -9.101824|    0.824002|    0.012017|
|         895|   -7.082856|   -9.099990|    0.824002|    0.012017|
|         896|   -7.083871|   -9.098379|    0.824002|    0.012017|
|         897|   -7.084680|   -9.097099|    0.824002|    0.012017|
|         898|   -7.085382|   -9.096244|    0.824003|    0.012017|
|         899|   -7.086062|   -9.095886|    0.824003|    0.012017|
|         900|   -7.086785|   -9.096079|    0.824003|    0.012017|
|         901|   -7.087603|   -9.096851|    0.824003|    0.012016|
+-----------------------------------------------------------------------+
|Fixed CL Mode                           |Value                         |
+-----------------------------------------------------------------------+
|Current CL                              |0.824003                      |
|Target CL                               |0.824                         |
|Previous AOA                            |2.78898                       |
[...]
|        5298|   -6.036798|   -7.971212|    0.824236|    0.012020|
|        5299|   -6.043493|   -7.974944|    0.824236|    0.012020|
|        5300|   -6.049797|   -7.978728|    0.824236|    0.012020|
|        5301|   -6.055672|   -7.982582|    0.824237|    0.012020|
|        5302|   -6.061090|   -7.986521|    0.824237|    0.012020|
|        5303|   -6.066034|   -7.990557|    0.824237|    0.012020|
|        5304|   -6.070499|   -7.994698|    0.824237|    0.012020|
|        5305|   -6.074494|   -7.998949|    0.824237|    0.012020|
|        5306|   -6.078037|   -8.003316|    0.824237|    0.012020|
|        5307|   -6.081158|   -8.007799|    0.824237|    0.012020|
|        5308|   -6.083896|   -8.012399|    0.824237|    0.012020|
|        5309|   -6.086300|   -8.017118|    0.824237|    0.012020|
|        5310|   -6.088417|   -8.021956|    0.824238|    0.012020|
|        5311|   -6.090304|   -8.026912|    0.824238|    0.012020|
|        5312|   -6.092017|   -8.031987|    0.824238|    0.012020|
|        5313|   -6.093615|   -8.037184|    0.824238|    0.012020|
|        5314|   -6.095152|   -8.042505|    0.824238|    0.012020|
|        5315|   -6.096681|   -8.047953|    0.824238|    0.012020|
|        5316|   -6.098252|   -8.053531|    0.824238|    0.012020|
|        5317|   -6.099908|   -8.059244|    0.824238|    0.012020|
|        5318|   -6.101687|   -8.065095|    0.824239|    0.012020|
|        5319|   -6.103623|   -8.071088|    0.824239|    0.012020|
|        5320|   -6.105742|   -8.077226|    0.824239|    0.012020|
|        5321|   -6.108062|   -8.083513|    0.824239|    0.012020|
|        5322|   -6.110597|   -8.089950|    0.824239|    0.012020|
|        5323|   -6.113353|   -8.096539|    0.824239|    0.012020|
|        5324|   -6.116329|   -8.103278|    0.824239|    0.012020|
|        5325|   -6.119518|   -8.110164|    0.824240|    0.012021|
|        5326|   -6.122906|   -8.117193|    0.824240|    0.012021|
|        5327|   -6.126476|   -8.124359|    0.824240|    0.012021|
|        5328|   -6.130201|   -8.131651|    0.824240|    0.012021|
|        5329|   -6.134053|   -8.139060|    0.824240|    0.012021|
|        5330|   -6.137996|   -8.146573|    0.824240|    0.012021|
|        5331|   -6.141996|   -8.154178|    0.824240|    0.012021|
|        5332|   -6.146010|   -8.161858|    0.824241|    0.012021|
|        5333|   -6.150000|   -8.169600|    0.824241|    0.012021|
|        5334|   -6.153922|   -8.177387|    0.824241|    0.012021|
|        5335|   -6.157739|   -8.185204|    0.824241|    0.012021|
|        5336|   -6.161411|   -8.193035|    0.824241|    0.012022|
|        5337|   -6.164906|   -8.200866|    0.824241|    0.012022|
|        5338|   -6.168196|   -8.208683|    0.824241|    0.012022|
|        5339|   -6.171258|   -8.216475|    0.824242|    0.012022|
|        5340|   -6.174078|   -8.224232|    0.824242|    0.012022|
|        5341|   -6.176649|   -8.231947|    0.824242|    0.012022|
|        5342|   -6.178972|   -8.239613|    0.824242|    0.012022|
|        5343|   -6.181057|   -8.247228|    0.824242|    0.012022|
|        5344|   -6.182920|   -8.254791|    0.824242|    0.012022|
|        5345|   -6.184585|   -8.262303|    0.824242|    0.012022|
|        5346|   -6.186083|   -8.269767|    0.824242|    0.012022|
|        5347|   -6.187447|   -8.277190|    0.824242|    0.012022|
|        5348|   -6.188718|   -8.284577|    0.824243|    0.012022|
|        5349|   -6.189936|   -8.291937|    0.824243|    0.012022|
|        5350|   -6.191145|   -8.299278|    0.824243|    0.012022|
|        5351|   -6.192386|   -8.306609|    0.824243|    0.012023|
|        5352|   -6.193703|   -8.313941|    0.824243|    0.012023|
|        5353|   -6.195134|   -8.321285|    0.824243|    0.012023|
|        5354|   -6.196718|   -8.328654|    0.824243|    0.012023|
|        5355|   -6.198490|   -8.336059|    0.824243|    0.012023|
|        5356|   -6.200479|   -8.343509|    0.824243|    0.012023|
|        5357|   -6.202712|   -8.351009|    0.824243|    0.012023|
|        5358|   -6.205211|   -8.358563|    0.824243|    0.012023|
|        5359|   -6.207994|   -8.366172|    0.824243|    0.012023|
|        5360|   -6.211073|   -8.373832|    0.824243|    0.012023|
|        5361|   -6.214457|   -8.381539|    0.824243|    0.012023|
|        5362|   -6.218148|   -8.389284|    0.824243|    0.012023|
|        5363|   -6.222144|   -8.397059|    0.824243|    0.012023|
|        5364|   -6.226440|   -8.404851|    0.824243|    0.012023|
|        5365|   -6.231022|   -8.412648|    0.824243|    0.012023|
|        5366|   -6.235875|   -8.420435|    0.824243|    0.012023|
|        5367|   -6.240976|   -8.428196|    0.824243|    0.012023|
|        5368|   -6.246300|   -8.435914|    0.824243|    0.012023|
|        5369|   -6.251816|   -8.443571|    0.824243|    0.012022|
|        5370|   -6.257489|   -8.451151|    0.824243|    0.012022|
|        5371|   -6.263281|   -8.458633|    0.824243|    0.012022|
|        5372|   -6.269149|   -8.466001|    0.824243|    0.012022|
|        5373|   -6.275049|   -8.473234|    0.824243|    0.012022|
|        5374|   -6.280933|   -8.480315|    0.824243|    0.012022|
|        5375|   -6.286752|   -8.487224|    0.824243|    0.012022|
|        5376|   -6.292459|   -8.493945|    0.824243|    0.012022|
|        5377|   -6.298005|   -8.500460|    0.824243|    0.012022|
|        5378|   -6.303345|   -8.506752|    0.824243|    0.012022|
|        5379|   -6.308436|   -8.512803|    0.824243|    0.012022|
|        5380|   -6.313240|   -8.518599|    0.824243|    0.012022|
|        5381|   -6.317725|   -8.524122|    0.824243|    0.012022|
|        5382|   -6.321863|   -8.529357|    0.824243|    0.012022|
|        5383|   -6.325634|   -8.534289|    0.824243|    0.012022|
|        5384|   -6.329026|   -8.538901|    0.824243|    0.012021|
|        5385|   -6.332034|   -8.543177|    0.824243|    0.012021|
|        5386|   -6.334659|   -8.547099|    0.824243|    0.012021|
|        5387|   -6.336909|   -8.550651|    0.824243|    0.012021|
|        5388|   -6.338798|   -8.553815|    0.824243|    0.012021|
|        5389|   -6.340345|   -8.556572|    0.824243|    0.012021|
|        5390|   -6.341573|   -8.558903|    0.824244|    0.012021|
|        5391|   -6.342508|   -8.560790|    0.824244|    0.012021|
|        5392|   -6.343177|   -8.562215|    0.824244|    0.012021|
|        5393|   -6.343608|   -8.563163|    0.824244|    0.012021|
|        5394|   -6.343829|   -8.563618|    0.824244|    0.012020|
|        5395|   -6.343866|   -8.563571|    0.824244|    0.012020|
|        5396|   -6.343744|   -8.563014|    0.824244|    0.012020|
|        5397|   -6.343487|   -8.561945|    0.824244|    0.012020|
|        5398|   -6.343116|   -8.560367|    0.824245|    0.012020|
|        5399|   -6.342648|   -8.558289|    0.824245|    0.012020|
|        5400|   -6.342098|   -8.555727|    0.824245|    0.012020|
|        5401|   -6.341482|   -8.552703|    0.824245|    0.012020|
|        5402|   -6.340808|   -8.549245|    0.824245|    0.012020|
|        5403|   -6.340085|   -8.545387|    0.824246|    0.012020|
|        5404|   -6.339322|   -8.541168|    0.824246|    0.012019|
|        5405|   -6.338522|   -8.536631|    0.824246|    0.012019|
|        5406|   -6.337691|   -8.531822|    0.824246|    0.012019|
|        5407|   -6.336832|   -8.526790|    0.824246|    0.012019|
|        5408|   -6.335948|   -8.521583|    0.824247|    0.012019|
|        5409|   -6.335040|   -8.516251|    0.824247|    0.012019|
|        5410|   -6.334111|   -8.510842|    0.824247|    0.012019|
|        5411|   -6.333164|   -8.505400|    0.824247|    0.012019|
|        5412|   -6.332201|   -8.499970|    0.824247|    0.012019|
|        5413|   -6.331223|   -8.494589|    0.824248|    0.012019|
|        5414|   -6.330234|   -8.489294|    0.824248|    0.012019|
|        5415|   -6.329239|   -8.484116|    0.824248|    0.012019|
|        5416|   -6.328241|   -8.479081|    0.824248|    0.012019|
|        5417|   -6.327247|   -8.474214|    0.824248|    0.012019|
|        5418|   -6.326262|   -8.469532|    0.824249|    0.012019|
|        5419|   -6.325293|   -8.465051|    0.824249|    0.012018|
|        5420|   -6.324345|   -8.460781|    0.824249|    0.012018|
|        5421|   -6.323429|   -8.456730|    0.824249|    0.012018|
|        5422|   -6.322551|   -8.452903|    0.824249|    0.012018|
|        5423|   -6.321722|   -8.449302|    0.824249|    0.012018|
|        5424|   -6.320952|   -8.445925|    0.824250|    0.012018|
|        5425|   -6.320251|   -8.442772|    0.824250|    0.012018|
|        5426|   -6.319631|   -8.439836|    0.824250|    0.012018|
|        5427|   -6.319105|   -8.437112|    0.824250|    0.012018|
|        5428|   -6.318684|   -8.434594|    0.824250|    0.012018|
|        5429|   -6.318383|   -8.432272|    0.824250|    0.012018|
|        5430|   -6.318215|   -8.430141|    0.824250|    0.012018|
|        5431|   -6.318194|   -8.428190|    0.824250|    0.012018|
|        5432|   -6.318334|   -8.426412|    0.824251|    0.012018|
|        5433|   -6.318649|   -8.424799|    0.824251|    0.012018|
|        5434|   -6.319154|   -8.423343|    0.824251|    0.012018|
|        5435|   -6.319860|   -8.422036|    0.824251|    0.012018|
|        5436|   -6.320782|   -8.420873|    0.824251|    0.012018|
|        5437|   -6.321931|   -8.419847|    0.824251|    0.012018|
|        5438|   -6.323317|   -8.418952|    0.824251|    0.012019|
|        5439|   -6.324952|   -8.418183|    0.824251|    0.012019|
|        5440|   -6.326842|   -8.417535|    0.824251|    0.012019|
|        5441|   -6.328995|   -8.417005|    0.824251|    0.012019|
|        5442|   -6.331413|   -8.416587|    0.824251|    0.012019|
|        5443|   -6.334101|   -8.416280|    0.824251|    0.012019|
|        5444|   -6.337057|   -8.416079|    0.824251|    0.012019|
|        5445|   -6.340278|   -8.415982|    0.824252|    0.012019|
|        5446|   -6.343759|   -8.415984|    0.824252|    0.012019|
|        5447|   -6.347490|   -8.416083|    0.824252|    0.012019|
|        5448|   -6.351461|   -8.416277|    0.824252|    0.012019|
|        5449|   -6.355654|   -8.416560|    0.824252|    0.012019|
|        5450|   -6.360053|   -8.416930|    0.824252|    0.012019|
|        5451|   -6.364633|   -8.417384|    0.824252|    0.012019|
|        5452|   -6.369369|   -8.417917|    0.824252|    0.012019|
|        5453|   -6.374231|   -8.418526|    0.824252|    0.012020|
|        5454|   -6.379186|   -8.419207|    0.824252|    0.012020|
|        5455|   -6.384199|   -8.419956|    0.824252|    0.012020|
|        5456|   -6.389231|   -8.420767|    0.824252|    0.012020|
|        5457|   -6.394239|   -8.421638|    0.824252|    0.012020|
|        5458|   -6.399181|   -8.422563|    0.824251|    0.012020|
|        5459|   -6.404013|   -8.423539|    0.824251|    0.012020|
|        5460|   -6.408690|   -8.424560|    0.824251|    0.012020|
|        5461|   -6.413168|   -8.425623|    0.824251|    0.012020|
|        5462|   -6.417404|   -8.426724|    0.824251|    0.012020|
|        5463|   -6.421359|   -8.427857|    0.824251|    0.012020|
|        5464|   -6.424997|   -8.429020|    0.824251|    0.012020|
|        5465|   -6.428287|   -8.430207|    0.824251|    0.012020|
|        5466|   -6.431202|   -8.431415|    0.824251|    0.012021|
|        5467|   -6.433725|   -8.432640|    0.824251|    0.012021|
|        5468|   -6.435842|   -8.433877|    0.824251|    0.012021|
|        5469|   -6.437549|   -8.435123|    0.824251|    0.012021|
|        5470|   -6.438849|   -8.436374|    0.824251|    0.012021|
|        5471|   -6.439751|   -8.437625|    0.824251|    0.012021|
|        5472|   -6.440272|   -8.438873|    0.824250|    0.012021|
|        5473|   -6.440435|   -8.440113|    0.824250|    0.012021|
|        5474|   -6.440267|   -8.441342|    0.824250|    0.012021|
|        5475|   -6.439801|   -8.442556|    0.824250|    0.012021|
|        5476|   -6.439074|   -8.443749|    0.824250|    0.012021|
|        5477|   -6.438122|   -8.444918|    0.824250|    0.012021|
|        5478|   -6.436986|   -8.446059|    0.824250|    0.012021|
|        5479|   -6.435706|   -8.447168|    0.824250|    0.012021|
|        5480|   -6.434322|   -8.448240|    0.824250|    0.012021|
|        5481|   -6.432872|   -8.449271|    0.824249|    0.012021|
|        5482|   -6.431395|   -8.450259|    0.824249|    0.012021|
|        5483|   -6.429925|   -8.451198|    0.824249|    0.012021|
|        5484|   -6.428495|   -8.452087|    0.824249|    0.012021|
|        5485|   -6.427137|   -8.452921|    0.824249|    0.012021|
|        5486|   -6.425877|   -8.453698|    0.824249|    0.012021|
|        5487|   -6.424741|   -8.454417|    0.824249|    0.012021|
|        5488|   -6.423751|   -8.455074|    0.824249|    0.012021|
|        5489|   -6.422926|   -8.455669|    0.824249|    0.012021|
|        5490|   -6.422283|   -8.456201|    0.824249|    0.012021|
|        5491|   -6.421837|   -8.456668|    0.824249|    0.012021|
|        5492|   -6.421598|   -8.457072|    0.824248|    0.012021|
|        5493|   -6.421577|   -8.457412|    0.824248|    0.012021|
|        5494|   -6.421781|   -8.457689|    0.824248|    0.012021|
|        5495|   -6.422215|   -8.457905|    0.824248|    0.012021|
|        5496|   -6.422883|   -8.458060|    0.824248|    0.012021|
|        5497|   -6.423787|   -8.458157|    0.824248|    0.012021|
|        5498|   -6.424927|   -8.458197|    0.824248|    0.012021|
|        5499|   -6.426302|   -8.458183|    0.824248|    0.012007|
+-----------------------------------------------------------------------+
|Fixed CL Mode (Finite Difference)       |Value                         |
+-----------------------------------------------------------------------+
|Delta CL / Delta AoA                    |0.248452                      |
|Delta CD / Delta CL                     |0.017865                      |
|Delta CMz / Delta CL                    |0.00489246                    |
+-----------------------------------------------------------------------+
Writing Flow Meta-Data file: flow.meta

----------------------------- Solver Exit -------------------------------

Maximum number of iterations reached (ITER = 5500) before convergence.
+-----------------------------------------------------------------------+
|      Convergence Field     |     Value    |   Criterion  |  Converged |
+-----------------------------------------------------------------------+
|                    rms[Rho]|       -6.4263|         < -12|          No|
+-----------------------------------------------------------------------+
-------------------------------------------------------------------------

--------------------------- Finalizing Solver ---------------------------
Deleted CNumerics container.
Deleted CIntegration container.
Deleted CSolver container.
Deleted CIteration container.
Deleted CInterface container.
Deleted CGeometry container.
Deleted CFreeFormDefBox class.
Deleted CSurfaceMovement class.
Deleted CVolumetricMovement class.
Deleted CConfig container.
Deleted nInst container.
Deleted COutput class.
-------------------------------------------------------------------------

------------------------- Exit Success (SU2_CFD) ------------------------


-------------------------------------------------------------------------
|    ___ _   _ ___                                                      |
|   / __| | | |_  )   Release 8.0.0 "Harrier"                           |
|   \__ \ |_| |/ /                                                      |
|   |___/\___//___|   Suite (Solution Exporting Code)                   |
|                                                                       |
-------------------------------------------------------------------------
| SU2 Project Website: https://su2code.github.io                        |
|                                                                       |
| The SU2 Project is maintained by the SU2 Foundation                   |
| (http://su2foundation.org)                                            |
-------------------------------------------------------------------------
| Copyright 2012-2023, SU2 Contributors                                 |
|                                                                       |
| SU2 is free software; you can redistribute it and/or                  |
| modify it under the terms of the GNU Lesser General Public            |
| License as published by the Free Software Foundation; either          |
| version 2.1 of the License, or (at your option) any later version.    |
|                                                                       |
| SU2 is distributed in the hope that it will be useful,                |
| but WITHOUT ANY WARRANTY; without even the implied warranty of        |
| MERCHANTABILITY or FITNESS FOR A PARTICULAR PURPOSE. See the GNU      |
| Lesser General Public License for more details.                       |
|                                                                       |
| You should have received a copy of the GNU Lesser General Public      |
| License along with SU2. If not, see <http://www.gnu.org/licenses/>.   |
-------------------------------------------------------------------------

----------------- Physical Case Definition ( Zone 0 ) -------------------
Input mesh file name: mesh_RAE2822_turb_deform.su2

-------------------- Output Information ( Zone 0 ) ----------------------
The tabular file format is CSV (.csv).
Flow variables file name: flow.

------------- Config File Boundary Information ( Zone 0 ) ---------------
+-----------------------------------------------------------------------+
|                        Marker Type|                        Marker Name|
+-----------------------------------------------------------------------+
|                          Far-field|                           FARFIELD|
+-----------------------------------------------------------------------+
|                     Heat flux wall|                            AIRFOIL|
+-----------------------------------------------------------------------+
Two dimensional problem.
13937 grid points before partitioning.
22842 volume elements before partitioning.
2 surface markers.
192 boundary elements in index 0 (Marker = AIRFOIL).
40 boundary elements in index 1 (Marker = FARFIELD).
Executing the partitioning functions.
Building the graph adjacency structure.
Calling ParMETIS... graph partitioning complete (831 edge cuts).
Distributing ParMETIS coloring.
Rebalancing vertices.
Rebalancing volume element connectivity.
Rebalancing markers and surface elements.
14875 vertices including ghost points. 
23674 interior elements including halo cells. 
18780 triangles.
4894 quadrilaterals.
Establishing MPI communication patterns.
Identify vertices.
Storing a mapping from global to local point index.

------------------------- Solution Postprocessing -----------------------
Reading and storing the solution from restart_flow.
Volume output fields: COORDINATES, SOLUTION
  Info: Ignoring the following screen output fields:
  RMS_DENSITY, RMS_NU_TILDE, LIFT, DRAG
Screen output fields: INNER_ITER
  Info: Ignoring the following history output groups:
  RMS_RES, AERO_COEFF
History output group(s): ITER
Warning: No (valid) fields chosen for convergence monitoring. Convergence monitoring inactive.
Warning: No (valid) fields chosen for time convergence monitoring. Time convergence monitoring inactive.
|Paraview                           |flow.vtu                           |
|Paraview surface                   |surface_flow.vtu                   |
|CSV file                           |surface_flow.csv                   |

------------------------- Finalize Solver -------------------------
Deleted CGeometry container.
Deleted CSolver class.
Deleted CConfig container.
Deleted COutput class.

Completed in 0.016330 seconds on 6 cores.

------------------------- Exit Success (SU2_SOL) ------------------------

