
-------------------------------------------------------------------------
|    ___ _   _ ___                                                      |
|   / __| | | |_  )   Release 8.0.0 "Harrier"                           |
|   \__ \ |_| |/ /                                                      |
|   |___/\___//___|   Suite (Computational Fluid Dynamics Code)         |
|                                                                       |
-------------------------------------------------------------------------
| SU2 Project Website: https://su2code.github.io                        |
|                                                                       |
| The SU2 Project is maintained by the SU2 Foundation                   |
| (http://su2foundation.org)                                            |
-------------------------------------------------------------------------
| Copyright 2012-2023, SU2 Contributors                                 |
|                                                                       |
| SU2 is free software; you can redistribute it and/or                  |
| modify it under the terms of the GNU Lesser General Public            |
| License as published by the Free Software Foundation; either          |
| version 2.1 of the License, or (at your option) any later version.    |
|                                                                       |
| SU2 is distributed in the hope that it will be useful,                |
| but WITHOUT ANY WARRANTY; without even the implied warranty of        |
| MERCHANTABILITY or FITNESS FOR A PARTICULAR PURPOSE. See the GNU      |
| Lesser General Public License for more details.                       |
|                                                                       |
| You should have received a copy of the GNU Lesser General Public      |
| License along with SU2. If not, see <http://www.gnu.org/licenses/>.   |
-------------------------------------------------------------------------

Parsing config file for zone 0

----------------- Physical Case Definition ( Zone 0 ) -------------------
Compressible RANS equations.
Turbulence model: Spalart-Allmaras-noft2
Hybrid RANS/LES: No Hybrid RANS/LES
Mach number: 0.734.
Angle of attack (AoA): 2.31 deg, and angle of sideslip (AoS): 0 deg.
Reynolds number: 6.5e+06. Reference length 1.
Fixed CL mode, target value: 0.824.
Reading and writing binary SU2 native restart files.
Read flow solution from: solution_flow.dat.
Dimensional simulation.
The reference area is 1 m^2.
The semi-span will be computed using the max y(3D) value.
The reference length is 1 m.
Reference origin for moment evaluation is (0.25, 0, 0).
Surface(s) where the force coefficients are evaluated: AIRFOIL.

Surface(s) plotted in the output file: AIRFOIL.
Surface(s) affected by the design variables: AIRFOIL.
Input mesh file name: mesh_RAE2822_turb_deform.su2

--------------- Space Numerical Integration ( Zone 0 ) ------------------
Jameson-Schmidt-Turkel scheme (2nd order in space) for the flow inviscid terms.
JST viscous coefficients (2nd & 4th): 0.5, 0.02.
The method includes a grid stretching correction (p = 0.3).
Scalar upwind solver for the turbulence model.
First order integration in space.
Average of gradients with correction (viscous flow terms).
Average of gradients with correction (viscous turbulence terms).
Gradient for viscous and source terms: inverse-distance weighted Least-Squares.

--------------- Time Numerical Integration  ( Zone 0 ) ------------------
Local time stepping (steady state simulation).
Euler implicit method for the flow equations.
FGMRES is used for solving the linear system.
Using a ILU(0) preconditioning.
Convergence criteria of the linear solver: 1e-06.
Max number of linear iterations: 10.
No CFL adaptation.
Courant-Friedrichs-Lewy number:       10
Euler implicit time integration for the turbulence model.

------------------ Convergence Criteria  ( Zone 0 ) ---------------------
Maximum number of solver subiterations: 5500.
Begin convergence monitoring at iteration 10.
Residual minimum value: 1e-12.
Cauchy series min. value: 1e-06.
Number of Cauchy elements: 100.
Begin windowed time average at iteration 0.

-------------------- Output Information ( Zone 0 ) ----------------------
File writing frequency: 
+------------------------------------+
|                     File| Frequency|
+------------------------------------+
|                  RESTART|     10000|
|                 PARAVIEW|     10000|
|         SURFACE_PARAVIEW|     10000|
|              SURFACE_CSV|     10000|
+------------------------------------+
Writing the convergence history file every 1 inner iterations.
Writing the screen convergence history every 1 inner iterations.
The tabular file format is CSV (.csv).
Convergence history file name: history_direct.
Forces breakdown file name: forces_breakdown.dat.
Surface file name: surface_flow.
Volume file name: flow.
Restart file name: restart_flow.dat.

------------- Config File Boundary Information ( Zone 0 ) ---------------
+-----------------------------------------------------------------------+
|                        Marker Type|                        Marker Name|
+-----------------------------------------------------------------------+
|                          Far-field|                           FARFIELD|
+-----------------------------------------------------------------------+
|                     Heat flux wall|                            AIRFOIL|
+-----------------------------------------------------------------------+

-------------------- Output Preprocessing ( Zone 0 ) --------------------

WARNING: SURFACE_PRESSURE_DROP can only be computed for at least 2 surfaces (outlet, inlet, ...)

Screen output fields: INNER_ITER, RMS_DENSITY, RMS_NU_TILDE, LIFT, DRAG
History output group(s): ITER, RMS_RES, AERO_COEFF
Convergence field(s): RMS_DENSITY
Warning: No (valid) fields chosen for time convergence monitoring. Time convergence monitoring inactive.
Volume output fields: COORDINATES, SOLUTION, PRIMITIVE

------------------- Geometry Preprocessing ( Zone 0 ) -------------------
Two dimensional problem.
13937 grid points before partitioning.
22842 volume elements before partitioning.
2 surface markers.
192 boundary elements in index 0 (Marker = AIRFOIL).
40 boundary elements in index 1 (Marker = FARFIELD).
Executing the partitioning functions.
Building the graph adjacency structure.
Calling ParMETIS... graph partitioning complete (831 edge cuts).
Distributing ParMETIS coloring.
Rebalancing vertices.
Rebalancing volume element connectivity.
Rebalancing markers and surface elements.
14875 vertices including ghost points. 
23674 interior elements including halo cells. 
18780 triangles.
4894 quadrilaterals.
Establishing MPI communication patterns.
Setting point connectivity.
Renumbering points (Reverse Cuthill McKee Ordering).
Recomputing point connectivity.
Setting element connectivity.
Checking the numerical grid orientation.
All volume elements are correctly orientend.
All surface elements are correctly orientend.
Identifying edges and vertices.
Setting the control volume structure.
Area of the computational grid: 32209.9.
Searching for the closest normal neighbors to the surfaces.
Storing a mapping from global to local point index.
Compute the surface curvature.
Max K: 174.912. Mean K: 7.85059. Standard deviation K: 24.0683.
Checking for periodicity.
Computing mesh quality statistics for the dual control volumes.
+--------------------------------------------------------------+
|           Mesh Quality Metric|        Minimum|        Maximum|
+--------------------------------------------------------------+
|    Orthogonality Angle (deg.)|        75.1245|        89.9991|
|     CV Face Area Aspect Ratio|        1.00396|         3358.5|
|           CV Sub-Volume Ratio|        1.00046|        1215.32|
+--------------------------------------------------------------+
Finding max control volume width.
Communicating number of neighbors.
Wetted area = 2.02184 m.
Area projection in the x-plane = 0.124887 m, y-plane = 0.995873 m.
Max. coordinate in the x-direction = 1 m, y-direction = 0.0620724 m.
Min. coordinate in the x-direction = 0 m, y-direction = -0.0599476 m.
Computing wall distances.

-------------------- Solver Preprocessing ( Zone 0 ) --------------------
WARNING: AoA in the solution file (2.78894 deg.) +
         AoA offset in mesh file (0 deg.) = 2.78894 deg.
WARNING: SU2 will use the dCD/dCL provided in the direct solution file: 0.018124.
WARNING: SU2 will use the dCMz/dCL provided in the direct solution file: 0.00584739.
Viscous flow: Computing pressure using the ideal gas law
based on the free-stream temperature and a density computed
from the Reynolds number.
Force coefficients computed using free-stream values.

-- Models:
+------------------------------------------------------------------------------+
|          Viscosity Model|        Conductivity Model|              Fluid Model|
+------------------------------------------------------------------------------+
|               SUTHERLAND|          CONSTANT_PRANDTL|             STANDARD_AIR|
+------------------------------------------------------------------------------+
-- Fluid properties:
+------------------------------------------------------------------------------+
|                  Name|    Dim. value|    Ref. value|      Unit|Non-dim. value|
+------------------------------------------------------------------------------+
|        Ref. Viscosity|     1.716e-05|             1|   N.s/m^2|     1.716e-05|
|      Sutherland Temp.|        273.15|             1|         K|        273.15|
|     Sutherland Const.|         110.4|             1|         K|         110.4|
+------------------------------------------------------------------------------+
|        Prandtl (Lam.)|             -|             -|         -|          0.71|
|       Prandtl (Turb.)|             -|             -|         -|           0.9|
+------------------------------------------------------------------------------+
|          Gas Constant|       287.058|             1|  N.m/kg.K|       287.058|
|      Spec. Heat Ratio|             -|             -|         -|           1.4|
+------------------------------------------------------------------------------+
-- Initial and free-stream conditions:
+------------------------------------------------------------------------------+
|                  Name|    Dim. value|    Ref. value|      Unit|Non-dim. value|
+------------------------------------------------------------------------------+
|       Static Pressure|         38515|             1|        Pa|         38515|
|               Density|      0.465631|             1|    kg/m^3|      0.465631|
|           Temperature|        288.15|             1|         K|        288.15|
|          Total Energy|        237984|             1|   m^2/s^2|        237984|
|            Velocity-X|       249.482|             1|       m/s|       249.482|
|            Velocity-Y|       12.1534|             1|       m/s|       12.1534|
|    Velocity Magnitude|       249.778|             1|       m/s|       249.778|
+------------------------------------------------------------------------------+
|             Viscosity|    1.7893e-05|             1|   N.s/m^2|    1.7893e-05|
|          Conductivity|             -|             1|   W/m^2.K|             -|
|     Turb. Kin. Energy|       233.959|             1|   m^2/s^2|       233.959|
|     Spec. Dissipation|        608834|             1|       1/s|        608834|
+------------------------------------------------------------------------------+
|           Mach Number|             -|             -|         -|         0.734|
|       Reynolds Number|             -|             -|         -|       6.5e+06|
+------------------------------------------------------------------------------+
Initialize Jacobian structure (Navier-Stokes). MG level: 0.
Initialize Jacobian structure (SA model).

------------------- Numerics Preprocessing ( Zone 0 ) -------------------

----------------- Integration Preprocessing ( Zone 0 ) ------------------

------------------- Iteration Preprocessing ( Zone 0 ) ------------------
Euler/Navier-Stokes/RANS fluid iteration.

------------------------------ Begin Solver -----------------------------

Simulation Run using the Single-zone Driver
WARNING: SU2 was not compiled for an AVX-capable architecture. Performance could be better,
         see https://su2code.github.io/docs_v7/Build-SU2-Linux-MacOS/#compiler-optimizations
+----------------------------------------------------------------+
|  Inner_Iter|    rms[Rho]|     rms[nu]|          CL|          CD|
+----------------------------------------------------------------+
|           0|   -6.951696|   -8.119499|    0.824001|    0.012016|
|           1|   -7.018480|   -8.224526|    0.824001|    0.012017|
|           2|   -7.090690|   -8.337730|    0.824002|    0.012017|
|           3|   -7.142511|   -8.455464|    0.824002|    0.012017|
|           4|   -7.176564|   -8.579106|    0.824002|    0.012017|
|           5|   -7.200704|   -8.700983|    0.824002|    0.012017|
|           6|   -7.216022|   -8.789147|    0.824002|    0.012017|
|           7|   -7.221264|   -8.812182|    0.824002|    0.012017|
|           8|   -7.217296|   -8.792507|    0.824002|    0.012017|
|           9|   -7.206559|   -8.769040|    0.824002|    0.012017|
|          10|   -7.191557|   -8.757148|    0.824002|    0.012017|
|          11|   -7.174606|   -8.756254|    0.824002|    0.012017|
|          12|   -7.157851|   -8.760093|    0.824002|    0.012017|
|          13|   -7.142943|   -8.762036|    0.824002|    0.012017|
|          14|   -7.130704|   -8.758413|    0.824002|    0.012017|
|          15|   -7.121102|   -8.749382|    0.824002|    0.012017|
|          16|   -7.113518|   -8.737136|    0.824002|    0.012017|
|          17|   -7.107143|   -8.723685|    0.824002|    0.012017|
|          18|   -7.101366|   -8.709981|    0.824002|    0.012017|
|          19|   -7.095978|   -8.696187|    0.824002|    0.012017|
|          20|   -7.091151|   -8.682271|    0.824002|    0.012017|
|          21|   -7.087225|   -8.668398|    0.824002|    0.012017|
|          22|   -7.084465|   -8.655020|    0.824002|    0.012017|
|          23|   -7.082891|   -8.642770|    0.824002|    0.012018|
|          24|   -7.082252|   -8.632314|    0.824002|    0.012018|
|          25|   -7.082107|   -8.624223|    0.824002|    0.012018|
|          26|   -7.081967|   -8.618896|    0.824002|    0.012018|
|          27|   -7.081435|   -8.616537|    0.824002|    0.012018|
|          28|   -7.080292|   -8.617146|    0.824002|    0.012018|
|          29|   -7.078510|   -8.620542|    0.824002|    0.012018|
|          30|   -7.076206|   -8.626383|    0.824002|    0.012018|
|          31|   -7.073573|   -8.634194|    0.824002|    0.012018|
|          32|   -7.070816|   -8.643395|    0.824002|    0.012018|
|          33|   -7.068114|   -8.653333|    0.824002|    0.012018|
|          34|   -7.065593|   -8.663321|    0.824002|    0.012018|
|          35|   -7.063334|   -8.672684|    0.824002|    0.012018|
|          36|   -7.061365|   -8.680823|    0.824002|    0.012018|
|          37|   -7.059680|   -8.687281|    0.824002|    0.012018|
|          38|   -7.058236|   -8.691804|    0.824002|    0.012018|
|          39|   -7.056969|   -8.694370|    0.824002|    0.012018|
|          40|   -7.055805|   -8.695184|    0.824002|    0.012018|
|          41|   -7.054665|   -8.694630|    0.824002|    0.012018|
|          42|   -7.053485|   -8.693201|    0.824002|    0.012018|
|          43|   -7.052216|   -8.691422|    0.824002|    0.012018|
|          44|   -7.050832|   -8.689781|    0.824002|    0.012018|
|          45|   -7.049325|   -8.688687|    0.824002|    0.012018|
|          46|   -7.047702|   -8.688447|    0.824002|    0.012017|
|          47|   -7.045971|   -8.689255|    0.824002|    0.012017|
|          48|   -7.044138|   -8.691199|    0.824001|    0.012017|
|          49|   -7.042200|   -8.694268|    0.824001|    0.012017|
|          50|   -7.040143|   -8.698365|    0.824001|    0.012017|
|          51|   -7.037948|   -8.703316|    0.824001|    0.012017|
|          52|   -7.035592|   -8.708882|    0.824001|    0.012017|
|          53|   -7.033058|   -8.714776|    0.824001|    0.012017|
|          54|   -7.030337|   -8.720680|    0.824001|    0.012017|
|          55|   -7.027429|   -8.726267|    0.824001|    0.012017|
|          56|   -7.024349|   -8.731236|    0.824001|    0.012017|
|          57|   -7.021121|   -8.735342|    0.824001|    0.012017|
|          58|   -7.017775|   -8.738420|    0.824001|    0.012017|
|          59|   -7.014348|   -8.740402|    0.824002|    0.012017|
|          60|   -7.010878|   -8.741316|    0.824002|    0.012017|
|          61|   -7.007401|   -8.741265|    0.824002|    0.012017|
|          62|   -7.003951|   -8.740402|    0.824002|    0.012017|
|          63|   -7.000560|   -8.738897|    0.824002|    0.012017|
|          64|   -6.997254|   -8.736910|    0.824002|    0.012017|
|          65|   -6.994052|   -8.734575|    0.824002|    0.012017|
|          66|   -6.990970|   -8.732005|    0.824002|    0.012017|
|          67|   -6.988016|   -8.729291|    0.824002|    0.012017|
|          68|   -6.985193|   -8.726520|    0.824002|    0.012017|
|          69|   -6.982500|   -8.723786|    0.824003|    0.012017|
|          70|   -6.979933|   -8.721198|    0.824003|    0.012017|
|          71|   -6.977487|   -8.718882|    0.824003|    0.012017|
|          72|   -6.975157|   -8.716973|    0.824003|    0.012017|
|          73|   -6.972942|   -8.715603|    0.824003|    0.012017|
|          74|   -6.970839|   -8.714886|    0.824003|    0.012017|
|          75|   -6.968850|   -8.714908|    0.824003|    0.012017|
|          76|   -6.966974|   -8.715714|    0.824003|    0.012017|
|          77|   -6.965210|   -8.717305|    0.824003|    0.012017|
|          78|   -6.963554|   -8.719638|    0.824003|    0.012017|
|          79|   -6.961998|   -8.722633|    0.824003|    0.012017|
|          80|   -6.960527|   -8.726181|    0.824003|    0.012017|
|          81|   -6.959127|   -8.730159|    0.824003|    0.012017|
|          82|   -6.957779|   -8.734438|    0.824003|    0.012017|
|          83|   -6.956465|   -8.738895|    0.824004|    0.012017|
|          84|   -6.955171|   -8.743426|    0.824004|    0.012017|
|          85|   -6.953889|   -8.747945|    0.824004|    0.012017|
|          86|   -6.952615|   -8.752391|    0.824004|    0.012017|
|          87|   -6.951357|   -8.756720|    0.824004|    0.012017|
|          88|   -6.950128|   -8.760906|    0.824004|    0.012017|
|          89|   -6.948949|   -8.764933|    0.824004|    0.012017|
|          90|   -6.947845|   -8.768791|    0.824004|    0.012017|
|          91|   -6.946844|   -8.772474|    0.824004|    0.012017|
|          92|   -6.945974|   -8.775972|    0.824004|    0.012017|
|          93|   -6.945263|   -8.779279|    0.824004|    0.012017|
|          94|   -6.944735|   -8.782386|    0.824004|    0.012017|
|          95|   -6.944408|   -8.785286|    0.824004|    0.012017|
|          96|   -6.944295|   -8.787972|    0.824004|    0.012017|
|          97|   -6.944406|   -8.790441|    0.824004|    0.012017|
|          98|   -6.944739|   -8.792693|    0.824004|    0.012017|
|          99|   -6.945288|   -8.794732|    0.824004|    0.012017|
|         100|   -6.946039|   -8.796563|    0.824004|    0.012017|
|         101|   -6.946971|   -8.798198|    0.824004|    0.012017|
+-----------------------------------------------------------------------+
|Fixed CL Mode                           |Value                         |
+-----------------------------------------------------------------------+
|Current CL                              |0.824004                      |
|Target CL                               |0.824                         |
|Previous AOA                            |2.78894                       |
|Changed AoA by                          |-2.05234e-05                  |
+-----------------------------------------------------------------------+
+----------------------------------------------------------------+
|  Inner_Iter|    rms[Rho]|     rms[nu]|          CL|          CD|
+----------------------------------------------------------------+
|         102|   -4.881054|   -8.721346|    0.824004|    0.012017|
|         103|   -5.264825|   -8.758613|    0.824004|    0.012017|
|         104|   -5.507408|   -8.771267|    0.824004|    0.012017|
|         105|   -5.586160|   -8.778644|    0.824004|    0.012017|
|         106|   -5.640470|   -8.784068|    0.824004|    0.012017|
|         107|   -5.711029|   -8.788353|    0.824004|    0.012017|
|         108|   -5.798497|   -8.791789|    0.824004|    0.012017|
|         109|   -5.890432|   -8.794567|    0.824004|    0.012017|
|         110|   -5.970280|   -8.796815|    0.824004|    0.012017|
|         111|   -6.029066|   -8.798589|    0.824005|    0.012017|
|         112|   -6.067774|   -8.799951|    0.824005|    0.012017|
|         113|   -6.089936|   -8.801026|    0.824005|    0.012017|
|         114|   -6.099449|   -8.801990|    0.824005|    0.012017|
|         115|   -6.102524|   -8.802956|    0.824005|    0.012017|
|         116|   -6.106173|   -8.803977|    0.824005|    0.012017|
|         117|   -6.115058|   -8.805064|    0.824005|    0.012017|
|         118|   -6.130253|   -8.806225|    0.824005|    0.012017|
|         119|   -6.149890|   -8.807496|    0.824005|    0.012017|
|         120|   -6.170704|   -8.808932|    0.824005|    0.012017|
|         121|   -6.189926|   -8.810576|    0.824005|    0.012017|
|         122|   -6.206612|   -8.812455|    0.824005|    0.012017|
|         123|   -6.221579|   -8.814568|    0.824005|    0.012017|
|         124|   -6.236224|   -8.816906|    0.824005|    0.012017|
|         125|   -6.251425|   -8.819449|    0.824005|    0.012017|
|         126|   -6.267180|   -8.822185|    0.824005|    0.012017|
|         127|   -6.282869|   -8.825108|    0.824005|    0.012017|
|         128|   -6.297673|   -8.828219|    0.824005|    0.012017|
|         129|   -6.310883|   -8.831499|    0.824005|    0.012017|
|         130|   -6.322046|   -8.834959|    0.824005|    0.012017|
|         131|   -6.331032|   -8.838596|    0.824005|    0.012017|
|         132|   -6.338090|   -8.842433|    0.824005|    0.012017|
|         133|   -6.343840|   -8.846465|    0.824005|    0.012017|
|         134|   -6.349156|   -8.850696|    0.824005|    0.012017|
|         135|   -6.354960|   -8.855127|    0.824005|    0.012017|
|         136|   -6.362013|   -8.859762|    0.824005|    0.012017|
|         137|   -6.370782|   -8.864595|    0.824005|    0.012017|
|         138|   -6.381380|   -8.869621|    0.824005|    0.012017|
|         139|   -6.393564|   -8.874833|    0.824005|    0.012017|
|         140|   -6.406767|   -8.880226|    0.824005|    0.012017|
|         141|   -6.420187|   -8.885797|    0.824005|    0.012017|
|         142|   -6.432931|   -8.891542|    0.824005|    0.012017|
|         143|   -6.444231|   -8.897459|    0.824005|    0.012017|
|         144|   -6.453669|   -8.903549|    0.824005|    0.012017|
|         145|   -6.461300|   -8.909819|    0.824005|    0.012017|
|         146|   -6.467625|   -8.916273|    0.824005|    0.012017|
|         147|   -6.473406|   -8.922917|    0.824005|    0.012017|
|         148|   -6.479441|   -8.929751|    0.824005|    0.012017|
|         149|   -6.486359|   -8.936770|    0.824004|    0.012017|
|         150|   -6.494521|   -8.943975|    0.824004|    0.012017|
|         151|   -6.503985|   -8.951379|    0.824004|    0.012017|
|         152|   -6.514548|   -8.958941|    0.824004|    0.012017|
|         153|   -6.525821|   -8.966651|    0.824004|    0.012017|
|         154|   -6.537327|   -8.974494|    0.824004|    0.012017|
|         155|   -6.548608|   -8.982460|    0.824004|    0.012017|
|         156|   -6.559311|   -8.990540|    0.824004|    0.012017|
|         157|   -6.569244|   -8.998728|    0.824004|    0.012017|
|         158|   -6.578387|   -9.007023|    0.824004|    0.012017|
|         159|   -6.586853|   -9.015423|    0.824003|    0.012017|
|         160|   -6.594833|   -9.023935|    0.824003|    0.012017|
|         161|   -6.602531|   -9.032567|    0.824003|    0.012017|
|         162|   -6.610118|   -9.041330|    0.824003|    0.012017|
|         163|   -6.617704|   -9.050236|    0.824003|    0.012017|
|         164|   -6.625336|   -9.059293|    0.824003|    0.012017|
|         165|   -6.633011|   -9.068517|    0.824003|    0.012017|
|         166|   -6.640696|   -9.077905|    0.824002|    0.012017|
|         167|   -6.648346|   -9.087449|    0.824002|    0.012017|
|         168|   -6.655921|   -9.097129|    0.824002|    0.012017|
|         169|   -6.663393|   -9.106908|    0.824002|    0.012017|
|         170|   -6.670745|   -9.116727|    0.824002|    0.012017|
|         171|   -6.677968|   -9.126499|    0.824002|    0.012017|
|         172|   -6.685054|   -9.136113|    0.824001|    0.012017|
|         173|   -6.691988|   -9.145427|    0.824001|    0.012017|
|         174|   -6.698749|   -9.154271|    0.824001|    0.012017|
|         175|   -6.705304|   -9.162456|    0.824001|    0.012017|
|         176|   -6.711614|   -9.169778|    0.824001|    0.012017|
|         177|   -6.717639|   -9.176035|    0.824001|    0.012017|
|         178|   -6.723337|   -9.181041|    0.824001|    0.012017|
|         179|   -6.728675|   -9.184651|    0.824000|    0.012017|
|         180|   -6.733630|   -9.186771|    0.824000|    0.012017|
|         181|   -6.738190|   -9.187377|    0.824000|    0.012017|
|         182|   -6.742356|   -9.186522|    0.824000|    0.012017|
|         183|   -6.746146|   -9.184332|    0.824000|    0.012017|
|         184|   -6.749587|   -9.180995|    0.824000|    0.012017|
|         185|   -6.752722|   -9.176753|    0.824000|    0.012017|
|         186|   -6.755602|   -9.171873|    0.824000|    0.012017|
|         187|   -6.758288|   -9.166636|    0.824000|    0.012017|
|         188|   -6.760847|   -9.161319|    0.824000|    0.012017|
|         189|   -6.763351|   -9.156183|    0.824000|    0.012017|
|         190|   -6.765872|   -9.151465|    0.824000|    0.012017|
|         191|   -6.768483|   -9.147371|    0.824000|    0.012017|
|         192|   -6.771255|   -9.144079|    0.824000|    0.012017|
|         193|   -6.774250|   -9.141738|    0.824000|    0.012017|
|         194|   -6.777526|   -9.140466|    0.824000|    0.012017|
|         195|   -6.781131|   -9.140357|    0.824000|    0.012016|
|         196|   -6.785103|   -9.141483|    0.824001|    0.012016|
|         197|   -6.789467|   -9.143889|    0.824001|    0.012016|
|         198|   -6.794239|   -9.147603|    0.824001|    0.012016|
|         199|   -6.799418|   -9.152632|    0.824001|    0.012016|
|         200|   -6.804994|   -9.158961|    0.824001|    0.012016|
|         201|   -6.810939|   -9.166554|    0.824001|    0.012016|
+-----------------------------------------------------------------------+
|Fixed CL Mode                           |Value                         |
+-----------------------------------------------------------------------+
|Current CL                              |0.824001                      |
|Target CL                               |0.824                         |
|Previous AOA                            |2.78891                       |
|Changed AoA by                          |-4.43651e-06                  |
+-----------------------------------------------------------------------+
+----------------------------------------------------------------+
|  Inner_Iter|    rms[Rho]|     rms[nu]|          CL|          CD|
+----------------------------------------------------------------+
|         202|   -5.545685|   -9.149879|    0.824001|    0.012016|
|         203|   -5.924587|   -9.170773|    0.824001|    0.012016|
|         204|   -6.151939|   -9.184874|    0.824001|    0.012016|
|         205|   -6.220502|   -9.198421|    0.824001|    0.012016|
|         206|   -6.268943|   -9.212233|    0.824002|    0.012016|
|         207|   -6.332659|   -9.226326|    0.824002|    0.012016|
|         208|   -6.410379|   -9.240521|    0.824002|    0.012016|
|         209|   -6.490314|   -9.254571|    0.824002|    0.012016|
|         210|   -6.559405|   -9.268165|    0.824002|    0.012016|
|         211|   -6.612070|   -9.280935|    0.824002|    0.012016|
|         212|   -6.649732|   -9.292502|    0.824002|    0.012016|
|         213|   -6.674695|   -9.302548|    0.824002|    0.012016|
|         214|   -6.689046|   -9.310847|    0.824002|    0.012016|
|         215|   -6.696690|   -9.317254|    0.824002|    0.012016|
|         216|   -6.702764|   -9.321706|    0.824002|    0.012016|
|         217|   -6.711179|   -9.324239|    0.824003|    0.012016|
|         218|   -6.723258|   -9.325004|    0.824003|    0.012016|
|         219|   -6.738092|   -9.324235|    0.824003|    0.012016|
|         220|   -6.753799|   -9.322232|    0.824003|    0.012016|
|         221|   -6.768903|   -9.319314|    0.824003|    0.012016|
|         222|   -6.783081|   -9.315783|    0.824003|    0.012016|
|         223|   -6.796926|   -9.311912|    0.824003|    0.012016|
|         224|   -6.811157|   -9.307937|    0.824003|    0.012016|
|         225|   -6.825988|   -9.304058|    0.824003|    0.012017|
|         226|   -6.841001|   -9.300441|    0.824003|    0.012017|
|         227|   -6.855419|   -9.297222|    0.824003|    0.012017|
|         228|   -6.868485|   -9.294504|    0.824003|    0.012017|
|         229|   -6.879730|   -9.292364|    0.824003|    0.012017|
|         230|   -6.889068|   -9.290852|    0.824003|    0.012017|
|         231|   -6.896766|   -9.289993|    0.824003|    0.012017|
|         232|   -6.903369|   -9.289789|    0.824003|    0.012017|
|         233|   -6.909586|   -9.290223|    0.824003|    0.012017|
|         234|   -6.916159|   -9.291260|    0.824003|    0.012017|
|         235|   -6.923725|   -9.292842|    0.824003|    0.012017|
|         236|   -6.932702|   -9.294923|    0.824003|    0.012017|
|         237|   -6.943232|   -9.297411|    0.824003|    0.012017|
|         238|   -6.955168|   -9.300230|    0.824003|    0.012017|
|         239|   -6.968091|   -9.303303|    0.824003|    0.012017|
|         240|   -6.981363|   -9.306553|    0.824003|    0.012017|
|         241|   -6.994215|   -9.309908|    0.824002|    0.012017|
|         242|   -7.005880|   -9.313306|    0.824002|    0.012017|
|         243|   -7.015755|   -9.316693|    0.824002|    0.012017|
|         244|   -7.023556|   -9.320029|    0.824002|    0.012017|
|         245|   -7.029372|   -9.323293|    0.824002|    0.012017|
|         246|   -7.033614|   -9.326473|    0.824002|    0.012017|
|         247|   -7.036868|   -9.329563|    0.824002|    0.012017|
|         248|   -7.039718|   -9.332580|    0.824002|    0.012017|
|         249|   -7.042614|   -9.335528|    0.824002|    0.012017|
|         250|   -7.045805|   -9.338433|    0.824002|    0.012017|
|         251|   -7.049340|   -9.341321|    0.824002|    0.012017|
|         252|   -7.053116|   -9.344222|    0.824002|    0.012017|
|         253|   -7.056945|   -9.347160|    0.824002|    0.012017|
|         254|   -7.060632|   -9.350154|    0.824002|    0.012017|
|         255|   -7.064035|   -9.353217|    0.824002|    0.012017|
|         256|   -7.067103|   -9.356350|    0.824002|    0.012017|
|         257|   -7.069880|   -9.359546|    0.824001|    0.012017|
|         258|   -7.072490|   -9.362787|    0.824001|    0.012017|
|         259|   -7.075102|   -9.366042|    0.824001|    0.012017|
|         260|   -7.077894|   -9.369277|    0.824001|    0.012017|
|         261|   -7.081026|   -9.372446|    0.824001|    0.012017|
|         262|   -7.084623|   -9.375506|    0.824001|    0.012017|
|         263|   -7.088769|   -9.378409|    0.824001|    0.012017|
|         264|   -7.093508|   -9.381116|    0.824001|    0.012017|
|         265|   -7.098862|   -9.383598|    0.824001|    0.012017|
|         266|   -7.104832|   -9.385841|    0.824001|    0.012017|
|         267|   -7.111413|   -9.387842|    0.824001|    0.012017|
|         268|   -7.118596|   -9.389620|    0.824001|    0.012017|
|         269|   -7.126374|   -9.391212|    0.824001|    0.012017|
|         270|   -7.134739|   -9.392675|    0.824001|    0.012017|
|         271|   -7.143680|   -9.394079|    0.824001|    0.012017|
|         272|   -7.153177|   -9.395509|    0.824001|    0.012017|
|         273|   -7.163204|   -9.397053|    0.824001|    0.012017|
|         274|   -7.173718|   -9.398804|    0.824000|    0.012017|
|         275|   -7.184663|   -9.400850|    0.824000|    0.012017|
|         276|   -7.195966|   -9.403272|    0.824000|    0.012017|
|         277|   -7.207540|   -9.406136|    0.824000|    0.012017|
|         278|   -7.219281|   -9.409491|    0.824000|    0.012017|
|         279|   -7.231073|   -9.413365|    0.824000|    0.012017|
|         280|   -7.242790|   -9.417759|    0.824000|    0.012017|
|         281|   -7.254296|   -9.422647|    0.824000|    0.012017|
|         282|   -7.265452|   -9.427975|    0.824000|    0.012017|
|         283|   -7.276118|   -9.433654|    0.824000|    0.012017|
|         284|   -7.286158|   -9.439568|    0.824000|    0.012017|
|         285|   -7.295447|   -9.445571|    0.824000|    0.012017|
|         286|   -7.303876|   -9.451495|    0.824000|    0.012017|
|         287|   -7.311359|   -9.457155|    0.824000|    0.012017|
|         288|   -7.317835|   -9.462362|    0.824000|    0.012017|
|         289|   -7.323274|   -9.466935|    0.824000|    0.012017|
|         290|   -7.327677|   -9.470720|    0.824000|    0.012017|
|         291|   -7.331073|   -9.473599|    0.824000|    0.012017|
|         292|   -7.333522|   -9.475508|    0.824000|    0.012017|
|         293|   -7.335106|   -9.476442|    0.824000|    0.012017|
|         294|   -7.335923|   -9.476460|    0.824000|    0.012017|
|         295|   -7.336088|   -9.475678|    0.824000|    0.012017|
|         296|   -7.335717|   -9.474258|    0.824000|    0.012017|
|         297|   -7.334932|   -9.472398|    0.824000|    0.012017|
|         298|   -7.333852|   -9.470314|    0.824000|    0.012017|
|         299|   -7.332588|   -9.468226|    0.824000|    0.012017|
|         300|   -7.331245|   -9.466343|    0.824000|    0.012017|
|         301|   -7.329918|   -9.464857|    0.824000|    0.012017|
|         302|   -7.328690|   -9.463933|    0.824000|    0.012017|
|         303|   -7.327635|   -9.463704|    0.824000|    0.012017|
|         304|   -7.326815|   -9.464269|    0.824000|    0.012017|
|         305|   -7.326282|   -9.465694|    0.824000|    0.012017|
|         306|   -7.326079|   -9.468004|    0.824000|    0.012017|
|         307|   -7.326237|   -9.471191|    0.824000|    0.012017|
|         308|   -7.326781|   -9.475207|    0.824000|    0.012017|
|         309|   -7.327726|   -9.479967|    0.824000|    0.012017|
|         310|   -7.329082|   -9.485347|    0.824000|    0.012017|
|         311|   -7.330851|   -9.491187|    0.824000|    0.012017|
|         312|   -7.333028|   -9.497293|    0.824000|    0.012017|
|         313|   -7.335604|   -9.503442|    0.824000|    0.012017|
|         314|   -7.338566|   -9.509389|    0.824000|    0.012017|
|         315|   -7.341894|   -9.514883|    0.824000|    0.012017|
|         316|   -7.345568|   -9.519677|    0.824000|    0.012017|
|         317|   -7.349561|   -9.523548|    0.824000|    0.012017|
|         318|   -7.353846|   -9.526319|    0.824000|    0.012017|
|         319|   -7.358394|   -9.527870|    0.824000|    0.012017|
|         320|   -7.363172|   -9.528151|    0.824000|    0.012017|
|         321|   -7.368149|   -9.527186|    0.824000|    0.012017|
|         322|   -7.373291|   -9.525071|    0.824000|    0.012017|
|         323|   -7.378565|   -9.521957|    0.824000|    0.012017|
|         324|   -7.383940|   -9.518037|    0.824000|    0.012017|
|         325|   -7.389383|   -9.513531|    0.824000|    0.012017|
|         326|   -7.394865|   -9.508659|    0.824000|    0.012017|
|         327|   -7.400357|   -9.503638|    0.824000|    0.012017|
|         328|   -7.405835|   -9.498663|    0.824000|    0.012017|
|         329|   -7.411276|   -9.493903|    0.824000|    0.012017|
|         330|   -7.416662|   -9.489496|    0.824000|    0.012017|
|         331|   -7.421976|   -9.485550|    0.824000|    0.012017|
|         332|   -7.427207|   -9.482144|    0.824000|    0.012017|
|         333|   -7.432347|   -9.479324|    0.824000|    0.012017|
|         334|   -7.437389|   -9.477115|    0.824000|    0.012017|
|         335|   -7.442333|   -9.475515|    0.824000|    0.012017|
|         336|   -7.447180|   -9.474504|    0.824000|    0.012017|
|         337|   -7.451930|   -9.474041|    0.824000|    0.012017|
|         338|   -7.456590|   -9.474074|    0.824000|    0.012017|
|         339|   -7.461163|   -9.474537|    0.824000|    0.012017|
|         340|   -7.465653|   -9.475355|    0.824000|    0.012017|
|         341|   -7.470063|   -9.476448|    0.824000|    0.012017|
|         342|   -7.474394|   -9.477731|    0.824000|    0.012017|
|         343|   -7.478644|   -9.479120|    0.824000|    0.012017|
|         344|   -7.482806|   -9.480533|    0.824000|    0.012017|
|         345|   -7.486872|   -9.481893|    0.824000|    0.012017|
|         346|   -7.490826|   -9.483132|    0.824000|    0.012017|
|         347|   -7.494651|   -9.484192|    0.824000|    0.012017|
|         348|   -7.498321|   -9.485026|    0.824000|    0.012017|
|         349|   -7.501810|   -9.485598|    0.824000|    0.012017|
|         350|   -7.505085|   -9.485887|    0.824000|    0.012017|
|         351|   -7.508113|   -9.485884|    0.824000|    0.012017|
|         352|   -7.510858|   -9.485591|    0.824000|    0.012017|
|         353|   -7.513284|   -9.485020|    0.824000|    0.012017|
|         354|   -7.515357|   -9.484192|    0.824000|    0.012017|
|         355|   -7.517044|   -9.483133|    0.824000|    0.012017|
|         356|   -7.518320|   -9.481875|    0.824000|    0.012017|
|         357|   -7.519166|   -9.480452|    0.824000|    0.012017|
|         358|   -7.519568|   -9.478901|    0.824000|    0.012017|
|         359|   -7.519526|   -9.477257|    0.824000|    0.012017|
|         360|   -7.519045|   -9.475556|    0.824000|    0.012017|
|         361|   -7.518144|   -9.473832|    0.824000|    0.012017|
|         362|   -7.516849|   -9.472116|    0.824000|    0.012017|
|         363|   -7.515196|   -9.470438|    0.824000|    0.012017|
|         364|   -7.513231|   -9.468827|    0.824000|    0.012017|
|         365|   -7.511003|   -9.467307|    0.824000|    0.012017|
|         366|   -7.508568|   -9.465902|    0.824000|    0.012017|
|         367|   -7.505987|   -9.464631|    0.824000|    0.012017|
|         368|   -7.503320|   -9.463515|    0.824000|    0.012017|
|         369|   -7.500628|   -9.462570|    0.824000|    0.012017|
|         370|   -7.497973|   -9.461810|    0.824000|    0.012017|
|         371|   -7.495412|   -9.461246|    0.823999|    0.012017|
|         372|   -7.493001|   -9.460889|    0.823999|    0.012017|
|         373|   -7.490791|   -9.460745|    0.823999|    0.012017|
|         374|   -7.488828|   -9.460817|    0.823999|    0.012017|
|         375|   -7.487156|   -9.461108|    0.823999|    0.012017|
|         376|   -7.485811|   -9.461613|    0.823999|    0.012017|
|         377|   -7.484827|   -9.462328|    0.823999|    0.012017|
|         378|   -7.484232|   -9.463244|    0.823999|    0.012017|
|         379|   -7.484048|   -9.464349|    0.823999|    0.012017|
|         380|   -7.484294|   -9.465626|    0.823999|    0.012017|
|         381|   -7.484985|   -9.467058|    0.823999|    0.012017|
|         382|   -7.486130|   -9.468625|    0.823999|    0.012017|
|         383|   -7.487735|   -9.470303|    0.823999|    0.012017|
|         384|   -7.489803|   -9.472068|    0.823999|    0.012017|
|         385|   -7.492331|   -9.473896|    0.823999|    0.012017|
|         386|   -7.495313|   -9.475761|    0.823999|    0.012017|
|         387|   -7.498741|   -9.477642|    0.823999|    0.012017|
|         388|   -7.502600|   -9.479514|    0.823999|    0.012017|
|         389|   -7.506875|   -9.481359|    0.823999|    0.012017|
|         390|   -7.511543|   -9.483162|    0.823999|    0.012017|
|         391|   -7.516581|   -9.484908|    0.823999|    0.012017|
|         392|   -7.521961|   -9.486591|    0.823999|    0.012017|
|         393|   -7.527649|   -9.488207|    0.823999|    0.012017|
|         394|   -7.533609|   -9.489757|    0.823999|    0.012017|
|         395|   -7.539802|   -9.491246|    0.823999|    0.012017|
|         396|   -7.546184|   -9.492685|    0.823999|    0.012017|
|         397|   -7.552706|   -9.494086|    0.823999|    0.012017|
|         398|   -7.559319|   -9.495466|    0.823999|    0.012017|
|         399|   -7.565970|   -9.496842|    0.823999|    0.012017|
|         400|   -7.572604|   -9.498234|    0.823999|    0.012017|
|         401|   -7.579164|   -9.499661|    0.823999|    0.012017|
+-----------------------------------------------------------------------+
|Fixed CL Mode                           |Value                         |
+-----------------------------------------------------------------------+
|Current CL                              |0.823999                      |
|Target CL                               |0.824                         |
|Previous AOA                            |2.78891                       |
|Changed AoA by                          |5.36063e-06                   |
+-----------------------------------------------------------------------+
+----------------------------------------------------------------+
|  Inner_Iter|    rms[Rho]|     rms[nu]|          CL|          CD|
+----------------------------------------------------------------+
|         402|   -5.464057|   -9.381036|    0.823999|    0.012017|
|         403|   -5.848112|   -9.435502|    0.823999|    0.012017|
|         404|   -6.092285|   -9.454707|    0.823999|    0.012017|
|         405|   -6.172406|   -9.466168|    0.823999|    0.012017|
|         406|   -6.227293|   -9.474965|    0.823999|    0.012017|
|         407|   -6.298070|   -9.482360|    0.823999|    0.012017|
|         408|   -6.385407|   -9.488752|    0.823999|    0.012017|
|         409|   -6.476504|   -9.494356|    0.823999|    0.012017|
|         410|   -6.554460|   -9.499286|    0.823999|    0.012017|
|         411|   -6.610597|   -9.503570|    0.823999|    0.012017|
|         412|   -6.646718|   -9.507225|    0.823999|    0.012017|
|         413|   -6.667067|   -9.510414|    0.823999|    0.012017|
|         414|   -6.675831|   -9.513376|    0.823999|    0.012017|
|         415|   -6.679024|   -9.516280|    0.823999|    0.012017|
|         416|   -6.683246|   -9.519206|    0.823999|    0.012017|
|         417|   -6.692842|   -9.522111|    0.823999|    0.012017|
|         418|   -6.708752|   -9.524990|    0.823999|    0.012017|
|         419|   -6.729083|   -9.527878|    0.823999|    0.012017|
|         420|   -6.750594|   -9.530846|    0.823999|    0.012017|
|         421|   -6.770539|   -9.533935|    0.823999|    0.012017|
|         422|   -6.787994|   -9.537184|    0.823999|    0.012017|
|         423|   -6.803801|   -9.540563|    0.823999|    0.012017|
|         424|   -6.819405|   -9.544022|    0.823999|    0.012017|
|         425|   -6.835736|   -9.547513|    0.823999|    0.012017|
|         426|   -6.852832|   -9.550999|    0.823999|    0.012017|
|         427|   -6.870066|   -9.554460|    0.823999|    0.012017|
|         428|   -6.886550|   -9.557887|    0.823999|    0.012017|
|         429|   -6.901452|   -9.561283|    0.823999|    0.012017|
|         430|   -6.914160|   -9.564657|    0.823999|    0.012017|
|         431|   -6.924393|   -9.568025|    0.823999|    0.012017|
|         432|   -6.932294|   -9.571409|    0.823999|    0.012017|
|         433|   -6.938461|   -9.574826|    0.823999|    0.012017|
|         434|   -6.943817|   -9.578291|    0.823999|    0.012017|
|         435|   -6.949373|   -9.581816|    0.823999|    0.012017|
|         436|   -6.955993|   -9.585404|    0.823999|    0.012017|
|         437|   -6.964231|   -9.589055|    0.823999|    0.012017|
|         438|   -6.974263|   -9.592764|    0.823999|    0.012017|
|         439|   -6.985883|   -9.596522|    0.823999|    0.012017|
|         440|   -6.998542|   -9.600327|    0.823999|    0.012017|
|         441|   -7.011440|   -9.604169|    0.823999|    0.012017|
|         442|   -7.023679|   -9.608047|    0.823999|    0.012017|
|         443|   -7.034490|   -9.611959|    0.823999|    0.012017|
|         444|   -7.043459|   -9.615912|    0.823999|    0.012017|
|         445|   -7.050659|   -9.619910|    0.823999|    0.012017|
|         446|   -7.056612|   -9.623962|    0.823999|    0.012017|
|         447|   -7.062107|   -9.628072|    0.823999|    0.012017|
|         448|   -7.067963|   -9.632245|    0.823999|    0.012017|
|         449|   -7.074830|   -9.636479|    0.823999|    0.012017|
|         450|   -7.083084|   -9.640775|    0.823999|    0.012017|
|         451|   -7.092801|   -9.645128|    0.823999|    0.012017|
|         452|   -7.103795|   -9.649538|    0.823999|    0.012017|
|         453|   -7.115694|   -9.654005|    0.823999|    0.012017|
|         454|   -7.128040|   -9.658531|    0.823999|    0.012017|
|         455|   -7.140389|   -9.663126|    0.823999|    0.012017|
|         456|   -7.152403|   -9.667803|    0.823999|    0.012017|
|         457|   -7.163904|   -9.672581|    0.823999|    0.012017|
|         458|   -7.174886|   -9.677483|    0.823999|    0.012017|
|         459|   -7.185483|   -9.682533|    0.823999|    0.012017|
|         460|   -7.195908|   -9.687757|    0.823999|    0.012017|
|         461|   -7.206393|   -9.693178|    0.823999|    0.012017|
|         462|   -7.217138|   -9.698819|    0.823999|    0.012017|
|         463|   -7.228278|   -9.704697|    0.823999|    0.012017|
|         464|   -7.239881|   -9.710832|    0.823999|    0.012017|
|         465|   -7.251955|   -9.717199|    0.823999|    0.012017|
|         466|   -7.264467|   -9.723784|    0.823999|    0.012017|
|         467|   -7.277364|   -9.730540|    0.823999|    0.012017|
|         468|   -7.290588|   -9.737400|    0.823999|    0.012017|
|         469|   -7.304085|   -9.744271|    0.823999|    0.012017|
|         470|   -7.317812|   -9.751035|    0.823999|    0.012017|
|         471|   -7.331726|   -9.757544|    0.823999|    0.012017|
|         472|   -7.345782|   -9.763626|    0.823999|    0.012017|
|         473|   -7.359921|   -9.769086|    0.823999|    0.012017|
|         474|   -7.374068|   -9.773720|    0.824000|    0.012017|
|         475|   -7.388127|   -9.777324|    0.824000|    0.012017|
|         476|   -7.401981|   -9.779712|    0.824000|    0.012017|
|         477|   -7.415499|   -9.780735|    0.824000|    0.012017|
|         478|   -7.428542|   -9.780298|    0.824000|    0.012017|
|         479|   -7.440970|   -9.778375|    0.824000|    0.012017|
|         480|   -7.452655|   -9.775013|    0.824000|    0.012017|
|         481|   -7.463485|   -9.770330|    0.824000|    0.012017|
|         482|   -7.473375|   -9.764511|    0.824000|    0.012017|
|         483|   -7.482267|   -9.757790|    0.824000|    0.012017|
|         484|   -7.490139|   -9.750430|    0.824000|    0.012017|
|         485|   -7.496999|   -9.742708|    0.824000|    0.012017|
|         486|   -7.502891|   -9.734900|    0.824000|    0.012017|
|         487|   -7.507882|   -9.727265|    0.824000|    0.012017|
|         488|   -7.512066|   -9.720040|    0.824000|    0.012017|
|         489|   -7.515552|   -9.713437|    0.824000|    0.012017|
|         490|   -7.518457|   -9.707636|    0.824000|    0.012017|
|         491|   -7.520902|   -9.702791|    0.824000|    0.012017|
|         492|   -7.523007|   -9.699029|    0.824000|    0.012017|
|         493|   -7.524882|   -9.696452|    0.824000|    0.012017|
|         494|   -7.526626|   -9.695140|    0.824000|    0.012017|
|         495|   -7.528323|   -9.695154|    0.824000|    0.012017|
|         496|   -7.530044|   -9.696536|    0.823999|    0.012017|
|         497|   -7.531843|   -9.699311|    0.823999|    0.012017|
|         498|   -7.533759|   -9.703488|    0.823999|    0.012017|
|         499|   -7.535816|   -9.709058|    0.823999|    0.012017|
|         500|   -7.538027|   -9.715995|    0.823999|    0.012017|
|         501|   -7.540391|   -9.724249|    0.823999|    0.012017|
+-----------------------------------------------------------------------+
|Fixed CL Mode                           |Value                         |
+-----------------------------------------------------------------------+
|Current CL                              |0.823999                      |
|Target CL                               |0.824                         |
|Previous AOA                            |2.78892                       |
|Changed AoA by                          |3.25485e-06                   |
+-----------------------------------------------------------------------+
+----------------------------------------------------------------+
|  Inner_Iter|    rms[Rho]|     rms[nu]|          CL|          CD|
+----------------------------------------------------------------+
|         502|   -5.680649|   -9.603223|    0.823999|    0.012017|
|         503|   -6.063085|   -9.666144|    0.823999|    0.012017|
|         504|   -6.302147|   -9.694903|    0.823999|    0.012017|
|         505|   -6.379362|   -9.716861|    0.823999|    0.012017|
|         506|   -6.433285|   -9.736898|    0.823999|    0.012017|
|         507|   -6.503239|   -9.756026|    0.823999|    0.012017|
|         508|   -6.589583|   -9.774363|    0.823999|    0.012017|
|         509|   -6.680178|   -9.791801|    0.823999|    0.012017|
|         510|   -6.759372|   -9.808065|    0.823999|    0.012017|
|         511|   -6.818973|   -9.822663|    0.823999|    0.012017|
|         512|   -6.859877|   -9.835106|    0.823999|    0.012017|
|         513|   -6.884915|   -9.845183|    0.823999|    0.012017|
|         514|   -6.897163|   -9.852879|    0.823999|    0.012017|
|         515|   -6.902286|   -9.858218|    0.823999|    0.012017|
|         516|   -6.907236|   -9.861288|    0.823999|    0.012017|
|         517|   -6.916904|   -9.862016|    0.823999|    0.012017|
|         518|   -6.932661|   -9.860587|    0.823999|    0.012017|
|         519|   -6.952911|   -9.857351|    0.823999|    0.012017|
|         520|   -6.974639|   -9.852784|    0.823999|    0.012017|
|         521|   -6.995264|   -9.847343|    0.823999|    0.012017|
|         522|   -7.013937|   -9.841375|    0.823999|    0.012017|
|         523|   -7.031457|   -9.835133|    0.823999|    0.012017|
|         524|   -7.049120|   -9.828800|    0.823999|    0.012017|
|         525|   -7.067630|   -9.822523|    0.823999|    0.012017|
|         526|   -7.086729|   -9.816431|    0.823999|    0.012017|
|         527|   -7.105467|   -9.810644|    0.823999|    0.012017|
|         528|   -7.122685|   -9.805263|    0.823999|    0.012017|
|         529|   -7.137417|   -9.800371|    0.823999|    0.012017|
|         530|   -7.149110|   -9.796030|    0.823999|    0.012017|
|         531|   -7.157715|   -9.792277|    0.823999|    0.012017|
|         532|   -7.163708|   -9.789126|    0.823999|    0.012017|
|         533|   -7.167999|   -9.786567|    0.823999|    0.012017|
|         534|   -7.171724|   -9.784568|    0.823999|    0.012017|
|         535|   -7.175972|   -9.783076|    0.823999|    0.012017|
|         536|   -7.181565|   -9.782023|    0.823999|    0.012017|
|         537|   -7.188933|   -9.781335|    0.823999|    0.012017|
|         538|   -7.198086|   -9.780933|    0.823999|    0.012017|
|         539|   -7.208643|   -9.780743|    0.823999|    0.012017|
|         540|   -7.219899|   -9.780696|    0.823999|    0.012017|
|         541|   -7.230941|   -9.780737|    0.823999|    0.012017|
|         542|   -7.240836|   -9.780826|    0.823999|    0.012017|
|         543|   -7.248871|   -9.780937|    0.823999|    0.012017|
|         544|   -7.254766|   -9.781057|    0.823999|    0.012017|
|         545|   -7.258758|   -9.781186|    0.823999|    0.012017|
|         546|   -7.261509|   -9.781334|    0.823999|    0.012017|
|         547|   -7.263880|   -9.781512|    0.823999|    0.012017|
|         548|   -7.266694|   -9.781739|    0.823999|    0.012017|
|         549|   -7.270561|   -9.782030|    0.823999|    0.012017|
|         550|   -7.275795|   -9.782399|    0.823999|    0.012017|
|         551|   -7.282424|   -9.782859|    0.823999|    0.012017|
|         552|   -7.290237|   -9.783415|    0.823999|    0.012017|
|         553|   -7.298878|   -9.784070|    0.823999|    0.012017|
|         554|   -7.307938|   -9.784821|    0.823999|    0.012017|
|         555|   -7.317049|   -9.785660|    0.823999|    0.012017|
|         556|   -7.325951|   -9.786573|    0.823999|    0.012017|
|         557|   -7.334532|   -9.787543|    0.823999|    0.012017|
|         558|   -7.342823|   -9.788550|    0.823999|    0.012017|
|         559|   -7.350959|   -9.789571|    0.823999|    0.012017|
|         560|   -7.359129|   -9.790584|    0.823999|    0.012017|
|         561|   -7.367524|   -9.791568|    0.823999|    0.012017|
|         562|   -7.376299|   -9.792509|    0.823999|    0.012017|
|         563|   -7.385553|   -9.793412|    0.823999|    0.012017|
|         564|   -7.395327|   -9.794263|    0.823999|    0.012017|
|         565|   -7.405620|   -9.795072|    0.823999|    0.012017|
|         566|   -7.416398|   -9.795859|    0.823999|    0.012017|
|         567|   -7.427614|   -9.796656|    0.823999|    0.012017|
|         568|   -7.439221|   -9.797503|    0.823999|    0.012017|
|         569|   -7.451178|   -9.798447|    0.823999|    0.012017|
|         570|   -7.463451|   -9.799541|    0.824000|    0.012017|
|         571|   -7.476010|   -9.800840|    0.824000|    0.012017|
|         572|   -7.488822|   -9.802395|    0.824000|    0.012017|
|         573|   -7.501841|   -9.804252|    0.824000|    0.012017|
|         574|   -7.515010|   -9.806451|    0.824000|    0.012017|
|         575|   -7.528250|   -9.809015|    0.824000|    0.012017|
|         576|   -7.541464|   -9.811953|    0.824000|    0.012017|
|         577|   -7.554541|   -9.815257|    0.824000|    0.012017|
|         578|   -7.567354|   -9.818895|    0.824000|    0.012017|
|         579|   -7.579772|   -9.822816|    0.824000|    0.012017|
|         580|   -7.591662|   -9.826946|    0.824000|    0.012017|
|         581|   -7.602897|   -9.831187|    0.824000|    0.012017|
|         582|   -7.613363|   -9.835425|    0.824000|    0.012017|
|         583|   -7.622966|   -9.839529|    0.824000|    0.012017|
|         584|   -7.631635|   -9.843362|    0.824000|    0.012017|
|         585|   -7.639328|   -9.846783|    0.824000|    0.012017|
|         586|   -7.646031|   -9.849662|    0.824000|    0.012017|
|         587|   -7.651763|   -9.851891|    0.824000|    0.012017|
|         588|   -7.656572|   -9.853387|    0.824000|    0.012017|
|         589|   -7.660530|   -9.854107|    0.824000|    0.012017|
|         590|   -7.663729|   -9.854052|    0.824000|    0.012017|
|         591|   -7.666276|   -9.853265|    0.824000|    0.012017|
|         592|   -7.668284|   -9.851832|    0.824000|    0.012017|
|         593|   -7.669868|   -9.849871|    0.824000|    0.012017|
|         594|   -7.671141|   -9.847528|    0.824000|    0.012017|
|         595|   -7.672209|   -9.844965|    0.824000|    0.012017|
|         596|   -7.673166|   -9.842347|    0.824000|    0.012017|
|         597|   -7.674098|   -9.839833|    0.824000|    0.012017|
|         598|   -7.675077|   -9.837571|    0.824000|    0.012017|
|         599|   -7.676164|   -9.835688|    0.824000|    0.012017|
|         600|   -7.677409|   -9.834286|    0.824000|    0.012017|
|         601|   -7.678853|   -9.833439|    0.824000|    0.012017|
|         602|   -7.680524|   -9.833190|    0.824000|    0.012017|
|         603|   -7.682445|   -9.833552|    0.824000|    0.012017|
|         604|   -7.684631|   -9.834503|    0.824000|    0.012017|
|         605|   -7.687091|   -9.835989|    0.824000|    0.012017|
|         606|   -7.689829|   -9.837922|    0.824000|    0.012017|
|         607|   -7.692845|   -9.840184|    0.824000|    0.012017|
|         608|   -7.696133|   -9.842628|    0.824000|    0.012017|
|         609|   -7.699688|   -9.845084|    0.824000|    0.012017|
|         610|   -7.703499|   -9.847364|    0.824000|    0.012017|
|         611|   -7.707557|   -9.849271|    0.824000|    0.012017|
|         612|   -7.711849|   -9.850614|    0.824000|    0.012017|
|         613|   -7.716363|   -9.851217|    0.824000|    0.012017|
|         614|   -7.721087|   -9.850935|    0.823999|    0.012017|
|         615|   -7.726007|   -9.849663|    0.823999|    0.012017|
|         616|   -7.731113|   -9.847352|    0.823999|    0.012017|
|         617|   -7.736393|   -9.844003|    0.823999|    0.012017|
|         618|   -7.741836|   -9.839677|    0.823999|    0.012017|
|         619|   -7.747433|   -9.834481|    0.823999|    0.012017|
|         620|   -7.753175|   -9.828560|    0.823999|    0.012017|
|         621|   -7.759052|   -9.822087|    0.823999|    0.012017|
|         622|   -7.765058|   -9.815248|    0.823999|    0.012017|
|         623|   -7.771181|   -9.808230|    0.823999|    0.012017|
|         624|   -7.777414|   -9.801211|    0.823999|    0.012017|
|         625|   -7.783744|   -9.794356|    0.823999|    0.012017|
|         626|   -7.790161|   -9.787809|    0.823999|    0.012017|
|         627|   -7.796649|   -9.781692|    0.823999|    0.012017|
|         628|   -7.803192|   -9.776104|    0.823999|    0.012017|
|         629|   -7.809771|   -9.771121|    0.823999|    0.012017|
|         630|   -7.816363|   -9.766798|    0.823999|    0.012017|
|         631|   -7.822944|   -9.763168|    0.823999|    0.012017|
|         632|   -7.829484|   -9.760249|    0.823999|    0.012017|
|         633|   -7.835954|   -9.758038|    0.823999|    0.012017|
|         634|   -7.842317|   -9.756520|    0.823999|    0.012017|
|         635|   -7.848537|   -9.755666|    0.823999|    0.012017|
|         636|   -7.854575|   -9.755434|    0.823999|    0.012017|
|         637|   -7.860389|   -9.755772|    0.823999|    0.012017|
|         638|   -7.865938|   -9.756621|    0.823999|    0.012017|
|         639|   -7.871179|   -9.757912|    0.823999|    0.012017|
|         640|   -7.876072|   -9.759574|    0.823999|    0.012017|
|         641|   -7.880577|   -9.761530|    0.823999|    0.012017|
|         642|   -7.884658|   -9.763703|    0.823999|    0.012017|
|         643|   -7.888286|   -9.766018|    0.823999|    0.012017|
|         644|   -7.891435|   -9.768400|    0.823999|    0.012017|
|         645|   -7.894086|   -9.770784|    0.823999|    0.012017|
|         646|   -7.896230|   -9.773107|    0.823999|    0.012017|
|         647|   -7.897864|   -9.775320|    0.823999|    0.012017|
|         648|   -7.898996|   -9.777380|    0.823999|    0.012017|
|         649|   -7.899641|   -9.779256|    0.823999|    0.012017|
|         650|   -7.899824|   -9.780929|    0.823999|    0.012017|
|         651|   -7.899574|   -9.782389|    0.823999|    0.012017|
|         652|   -7.898932|   -9.783634|    0.823999|    0.012017|
|         653|   -7.897939|   -9.784672|    0.823999|    0.012017|
|         654|   -7.896643|   -9.785516|    0.823999|    0.012017|
|         655|   -7.895095|   -9.786182|    0.823999|    0.012017|
|         656|   -7.893346|   -9.786691|    0.823999|    0.012017|
|         657|   -7.891449|   -9.787063|    0.823999|    0.012017|
|         658|   -7.889454|   -9.787317|    0.823999|    0.012017|
|         659|   -7.887412|   -9.787473|    0.823999|    0.012017|
|         660|   -7.885370|   -9.787545|    0.823999|    0.012017|
|         661|   -7.883374|   -9.787547|    0.823999|    0.012017|
|         662|   -7.881464|   -9.787490|    0.823999|    0.012017|
|         663|   -7.879680|   -9.787383|    0.823999|    0.012017|
|         664|   -7.878058|   -9.787233|    0.823999|    0.012017|
|         665|   -7.876628|   -9.787045|    0.823999|    0.012017|
|         666|   -7.875419|   -9.786825|    0.823999|    0.012017|
|         667|   -7.874457|   -9.786579|    0.823999|    0.012017|
|         668|   -7.873765|   -9.786316|    0.823999|    0.012017|
|         669|   -7.873361|   -9.786043|    0.823999|    0.012017|
|         670|   -7.873263|   -9.785772|    0.823999|    0.012017|
|         671|   -7.873483|   -9.785517|    0.823999|    0.012017|
|         672|   -7.874035|   -9.785291|    0.823999|    0.012017|
|         673|   -7.874926|   -9.785112|    0.823999|    0.012017|
|         674|   -7.876164|   -9.784997|    0.823999|    0.012017|
|         675|   -7.877753|   -9.784964|    0.823999|    0.012017|
|         676|   -7.879693|   -9.785031|    0.823999|    0.012017|
|         677|   -7.881986|   -9.785214|    0.823999|    0.012017|
|         678|   -7.884628|   -9.785527|    0.823999|    0.012017|
|         679|   -7.887613|   -9.785983|    0.823999|    0.012017|
|         680|   -7.890933|   -9.786589|    0.823999|    0.012017|
|         681|   -7.894577|   -9.787349|    0.823999|    0.012017|
|         682|   -7.898531|   -9.788263|    0.823999|    0.012017|
|         683|   -7.902779|   -9.789327|    0.823999|    0.012017|
|         684|   -7.907301|   -9.790531|    0.823999|    0.012017|
|         685|   -7.912074|   -9.791863|    0.823999|    0.012017|
|         686|   -7.917072|   -9.793305|    0.823999|    0.012017|
|         687|   -7.922267|   -9.794837|    0.823999|    0.012017|
|         688|   -7.927626|   -9.796439|    0.823999|    0.012017|
|         689|   -7.933115|   -9.798085|    0.823999|    0.012017|
|         690|   -7.938696|   -9.799754|    0.823999|    0.012017|
|         691|   -7.944330|   -9.801424|    0.823999|    0.012017|
|         692|   -7.949977|   -9.803073|    0.823999|    0.012017|
|         693|   -7.955593|   -9.804685|    0.823999|    0.012017|
|         694|   -7.961136|   -9.806248|    0.823999|    0.012017|
|         695|   -7.966564|   -9.807753|    0.823999|    0.012017|
|         696|   -7.971837|   -9.809198|    0.823999|    0.012017|
|         697|   -7.976915|   -9.810585|    0.823999|    0.012017|
|         698|   -7.981764|   -9.811921|    0.823999|    0.012017|
|         699|   -7.986353|   -9.813217|    0.823999|    0.012017|
|         700|   -7.990658|   -9.814490|    0.823999|    0.012017|
|         701|   -7.994658|   -9.815758|    0.823999|    0.012017|
+-----------------------------------------------------------------------+
|Fixed CL Mode                           |Value                         |
+-----------------------------------------------------------------------+
|Current CL                              |0.823999                      |
|Target CL                               |0.824                         |
|Previous AOA                            |2.78892                       |
|Changed AoA by                          |3.01906e-06                   |
+-----------------------------------------------------------------------+
+----------------------------------------------------------------+
|  Inner_Iter|    rms[Rho]|     rms[nu]|          CL|          CD|
+----------------------------------------------------------------+
|         702|   -5.713513|   -9.664438|    0.823999|    0.012017|
|         703|   -6.097869|   -9.729464|    0.823999|    0.012017|
|         704|   -6.341444|   -9.753084|    0.823999|    0.012017|
|         705|   -6.420000|   -9.767298|    0.823999|    0.012017|
|         706|   -6.473696|   -9.778145|    0.823999|    0.012017|
|         707|   -6.543616|   -9.787116|    0.823999|    0.012017|
|         708|   -6.630370|   -9.794703|    0.823999|    0.012017|
|         709|   -6.721462|   -9.801211|    0.823999|    0.012017|
|         710|   -6.800492|   -9.806829|    0.823999|    0.012017|
|         711|   -6.858805|   -9.811597|    0.823999|    0.012017|
|         712|   -6.897598|   -9.815578|    0.823999|    0.012017|
|         713|   -6.920380|   -9.819008|    0.823999|    0.012017|
|         714|   -6.930852|   -9.822216|    0.823999|    0.012017|
|         715|   -6.934972|   -9.825421|    0.823999|    0.012017|
|         716|   -6.939616|   -9.828770|    0.823999|    0.012017|
|         717|   -6.949451|   -9.832175|    0.823999|    0.012017|
|         718|   -6.965629|   -9.835638|    0.823999|    0.012017|
|         719|   -6.986364|   -9.839198|    0.823999|    0.012017|
|         720|   -7.008452|   -9.842944|    0.823999|    0.012017|
|         721|   -7.029147|   -9.846928|    0.823999|    0.012017|
|         722|   -7.047523|   -9.851141|    0.823999|    0.012017|
|         723|   -7.064428|   -9.855522|    0.823999|    0.012017|
|         724|   -7.081296|   -9.859975|    0.823999|    0.012017|
|         725|   -7.099013|   -9.864402|    0.823999|    0.012017|
|         726|   -7.117514|   -9.868725|    0.823999|    0.012017|
|         727|   -7.136032|   -9.872892|    0.823999|    0.012017|
|         728|   -7.153537|   -9.876875|    0.823999|    0.012017|
|         729|   -7.169103|   -9.880662|    0.823999|    0.012017|
|         730|   -7.182100|   -9.884254|    0.823999|    0.012017|
|         731|   -7.192319|   -9.887661|    0.823999|    0.012017|
|         732|   -7.200049|   -9.890896|    0.823999|    0.012017|
|         733|   -7.206061|   -9.893968|    0.823999|    0.012017|
|         734|   -7.211439|   -9.896879|    0.823999|    0.012017|
|         735|   -7.217316|   -9.899622|    0.823999|    0.012017|
|         736|   -7.224620|   -9.902177|    0.823999|    0.012017|
|         737|   -7.233921|   -9.904520|    0.823999|    0.012017|
|         738|   -7.245370|   -9.906623|    0.823999|    0.012017|
|         739|   -7.258700|   -9.908457|    0.823999|    0.012017|
|         740|   -7.273257|   -9.909995|    0.823999|    0.012017|
|         741|   -7.288096|   -9.911220|    0.823999|    0.012017|
|         742|   -7.302142|   -9.912124|    0.823999|    0.012017|
|         743|   -7.314457|   -9.912710|    0.823999|    0.012017|
|         744|   -7.324514|   -9.912989|    0.823999|    0.012017|
|         745|   -7.332374|   -9.912982|    0.823999|    0.012017|
|         746|   -7.338648|   -9.912708|    0.823999|    0.012017|
|         747|   -7.344274|   -9.912192|    0.823999|    0.012017|
|         748|   -7.350230|   -9.911455|    0.823999|    0.012017|
|         749|   -7.357298|   -9.910517|    0.823999|    0.012017|
|         750|   -7.365932|   -9.909396|    0.823999|    0.012017|
|         751|   -7.376236|   -9.908113|    0.823999|    0.012017|
|         752|   -7.388009|   -9.906690|    0.823999|    0.012017|
|         753|   -7.400826|   -9.905154|    0.823999|    0.012017|
|         754|   -7.414156|   -9.903540|    0.823999|    0.012017|
|         755|   -7.427473|   -9.901888|    0.823999|    0.012017|
|         756|   -7.440370|   -9.900249|    0.823999|    0.012017|
|         757|   -7.452626|   -9.898680|    0.823999|    0.012017|
|         758|   -7.464226|   -9.897246|    0.823999|    0.012017|
|         759|   -7.475323|   -9.896019|    0.823999|    0.012017|
|         760|   -7.486172|   -9.895074|    0.823999|    0.012017|
|         761|   -7.497055|   -9.894490|    0.824000|    0.012017|
|         762|   -7.508213|   -9.894346|    0.824000|    0.012017|
|         763|   -7.519815|   -9.894734|    0.824000|    0.012017|
|         764|   -7.531950|   -9.895736|    0.824000|    0.012017|
|         765|   -7.544638|   -9.897407|    0.824000|    0.012017|
|         766|   -7.557850|   -9.899817|    0.824000|    0.012017|
|         767|   -7.571538|   -9.903023|    0.824000|    0.012017|
|         768|   -7.585653|   -9.907068|    0.824000|    0.012017|
|         769|   -7.600154|   -9.911978|    0.824000|    0.012017|
|         770|   -7.615019|   -9.917761|    0.824000|    0.012017|
|         771|   -7.630234|   -9.924402|    0.824000|    0.012017|
|         772|   -7.645785|   -9.931857|    0.824000|    0.012017|
|         773|   -7.661649|   -9.940050|    0.824000|    0.012017|
|         774|   -7.677784|   -9.948869|    0.824000|    0.012017|
|         775|   -7.694123|   -9.958159|    0.824000|    0.012017|
|         776|   -7.710568|   -9.967725|    0.824000|    0.012017|
|         777|   -7.726999|   -9.977324|    0.824000|    0.012017|
|         778|   -7.743268|   -9.986680|    0.824000|    0.012017|
|         779|   -7.759214|   -9.995485|    0.824000|    0.012017|
|         780|   -7.774662|  -10.003420|    0.824000|    0.012017|
|         781|   -7.789440|  -10.010179|    0.824000|    0.012017|
|         782|   -7.803378|  -10.015498|    0.824000|    0.012017|
|         783|   -7.816325|  -10.019180|    0.824000|    0.012017|
|         784|   -7.828153|  -10.021128|    0.824000|    0.012017|
|         785|   -7.838769|  -10.021348|    0.824000|    0.012017|
|         786|   -7.848117|  -10.019961|    0.824000|    0.012017|
|         787|   -7.856189|  -10.017180|    0.824000|    0.012017|
|         788|   -7.863020|  -10.013291|    0.824000|    0.012017|
|         789|   -7.868685|  -10.008622|    0.824000|    0.012017|
|         790|   -7.873297|  -10.003517|    0.824000|    0.012017|
|         791|   -7.876993|   -9.998309|    0.824000|    0.012017|
|         792|   -7.879926|   -9.993305|    0.824000|    0.012017|
|         793|   -7.882254|   -9.988775|    0.824000|    0.012017|
|         794|   -7.884130|   -9.984948|    0.824000|    0.012017|
|         795|   -7.885700|   -9.982011|    0.824000|    0.012017|
|         796|   -7.887088|   -9.980111|    0.824000|    0.012017|
|         797|   -7.888405|   -9.979357|    0.824000|    0.012017|
|         798|   -7.889740|   -9.979825|    0.824000|    0.012017|
|         799|   -7.891161|   -9.981559|    0.824000|    0.012017|
|         800|   -7.892722|   -9.984575|    0.824000|    0.012017|
|         801|   -7.894458|   -9.988862|    0.824000|    0.012017|
|         802|   -7.896391|   -9.994379|    0.824000|    0.012017|
|         803|   -7.898531|  -10.001060|    0.824000|    0.012017|
|         804|   -7.900882|  -10.008806|    0.824000|    0.012017|
|         805|   -7.903437|  -10.017489|    0.824000|    0.012017|
|         806|   -7.906189|  -10.026946|    0.824000|    0.012017|
|         807|   -7.909125|  -10.036977|    0.824000|    0.012017|
|         808|   -7.912236|  -10.047347|    0.824000|    0.012017|
|         809|   -7.915510|  -10.057785|    0.824000|    0.012017|
|         810|   -7.918941|  -10.067992|    0.824000|    0.012017|
|         811|   -7.922525|  -10.077651|    0.824000|    0.012017|
|         812|   -7.926265|  -10.086444|    0.824000|    0.012017|
|         813|   -7.930168|  -10.094070|    0.824000|    0.012017|
|         814|   -7.934248|  -10.100274|    0.824000|    0.012017|
|         815|   -7.938523|  -10.104866|    0.824000|    0.012017|
|         816|   -7.943018|  -10.107743|    0.824000|    0.012017|
|         817|   -7.947764|  -10.108900|    0.824000|    0.012017|
|         818|   -7.952795|  -10.108427|    0.824000|    0.012017|
|         819|   -7.958149|  -10.106494|    0.824000|    0.012017|
|         820|   -7.963866|  -10.103339|    0.824000|    0.012017|
|         821|   -7.969988|  -10.099233|    0.824000|    0.012017|
|         822|   -7.976555|  -10.094465|    0.824000|    0.012017|
|         823|   -7.983607|  -10.089319|    0.824000|    0.012017|
|         824|   -7.991184|  -10.084058|    0.824000|    0.012017|
|         825|   -7.999319|  -10.078916|    0.824000|    0.012017|
|         826|   -8.008043|  -10.074094|    0.824000|    0.012017|
|         827|   -8.017382|  -10.069757|    0.824000|    0.012017|
|         828|   -8.027356|  -10.066039|    0.824000|    0.012017|
|         829|   -8.037976|  -10.063041|    0.824000|    0.012017|
|         830|   -8.049247|  -10.060838|    0.824000|    0.012017|
|         831|   -8.061161|  -10.059482|    0.824000|    0.012017|
|         832|   -8.073702|  -10.059001|    0.824000|    0.012017|
|         833|   -8.086836|  -10.059406|    0.824000|    0.012017|
|         834|   -8.100516|  -10.060690|    0.824000|    0.012017|
|         835|   -8.114674|  -10.062833|    0.824000|    0.012017|
|         836|   -8.129218|  -10.065800|    0.824000|    0.012017|
|         837|   -8.144032|  -10.069542|    0.824000|    0.012017|
|         838|   -8.158969|  -10.073998|    0.824000|    0.012017|
|         839|   -8.173852|  -10.079096|    0.824000|    0.012017|
|         840|   -8.188469|  -10.084754|    0.824000|    0.012017|
|         841|   -8.202580|  -10.090877|    0.824000|    0.012017|
|         842|   -8.215919|  -10.097364|    0.824000|    0.012017|
|         843|   -8.228206|  -10.104105|    0.824000|    0.012017|
|         844|   -8.239162|  -10.110988|    0.824000|    0.012017|
|         845|   -8.248531|  -10.117897|    0.824000|    0.012017|
|         846|   -8.256100|  -10.124716|    0.824000|    0.012017|
|         847|   -8.261725|  -10.131336|    0.824000|    0.012017|
|         848|   -8.265344|  -10.137656|    0.824000|    0.012017|
|         849|   -8.266985|  -10.143587|    0.824000|    0.012017|
|         850|   -8.266766|  -10.149054|    0.824000|    0.012017|
|         851|   -8.264883|  -10.153999|    0.824000|    0.012017|
|         852|   -8.261585|  -10.158381|    0.824000|    0.012017|
|         853|   -8.257158|  -10.162176|    0.824000|    0.012017|
|         854|   -8.251896|  -10.165377|    0.824000|    0.012017|
|         855|   -8.246089|  -10.167986|    0.824000|    0.012017|
|         856|   -8.240005|  -10.170019|    0.824000|    0.012017|
|         857|   -8.233882|  -10.171495|    0.824000|    0.012017|
|         858|   -8.227928|  -10.172437|    0.824000|    0.012017|
|         859|   -8.222315|  -10.172866|    0.824000|    0.012017|
|         860|   -8.217184|  -10.172804|    0.824000|    0.012017|
|         861|   -8.212646|  -10.172267|    0.824000|    0.012017|
|         862|   -8.208789|  -10.171271|    0.824000|    0.012017|
|         863|   -8.205677|  -10.169828|    0.824000|    0.012017|
|         864|   -8.203354|  -10.167951|    0.824000|    0.012017|
|         865|   -8.201851|  -10.165654|    0.824000|    0.012017|
|         866|   -8.201183|  -10.162957|    0.824000|    0.012017|
|         867|   -8.201355|  -10.159884|    0.824000|    0.012017|
|         868|   -8.202360|  -10.156469|    0.824000|    0.012017|
|         869|   -8.204185|  -10.152755|    0.824000|    0.012017|
|         870|   -8.206808|  -10.148794|    0.824000|    0.012017|
|         871|   -8.210197|  -10.144648|    0.824000|    0.012017|
|         872|   -8.214315|  -10.140385|    0.824000|    0.012017|
|         873|   -8.219118|  -10.136080|    0.824000|    0.012017|
|         874|   -8.224554|  -10.131811|    0.824000|    0.012017|
|         875|   -8.230562|  -10.127656|    0.824000|    0.012017|
|         876|   -8.237075|  -10.123691|    0.824000|    0.012017|
|         877|   -8.244019|  -10.119989|    0.824000|    0.012017|
|         878|   -8.251309|  -10.116615|    0.824000|    0.012017|
|         879|   -8.258855|  -10.113625|    0.824000|    0.012017|
|         880|   -8.266558|  -10.111065|    0.824000|    0.012017|
|         881|   -8.274314|  -10.108970|    0.824000|    0.012017|
|         882|   -8.282014|  -10.107363|    0.824000|    0.012017|
|         883|   -8.289549|  -10.106255|    0.824000|    0.012017|
|         884|   -8.296807|  -10.105642|    0.824000|    0.012017|
|         885|   -8.303682|  -10.105509|    0.824000|    0.012017|
|         886|   -8.310078|  -10.105829|    0.824000|    0.012017|
|         887|   -8.315907|  -10.106563|    0.824000|    0.012017|
|         888|   -8.321100|  -10.107663|    0.824000|    0.012017|
|         889|   -8.325606|  -10.109070|    0.824000|    0.012017|
|         890|   -8.329395|  -10.110721|    0.824000|    0.012017|
|         891|   -8.332460|  -10.112549|    0.824000|    0.012017|
|         892|   -8.334819|  -10.114483|    0.824000|    0.012017|
|         893|   -8.336509|  -10.116456|    0.824000|    0.012017|
|         894|   -8.337584|  -10.118405|    0.824000|    0.012017|
|         895|   -8.338118|  -10.120272|    0.824000|    0.012017|
|         896|   -8.338193|  -10.122013|    0.824000|    0.012017|
|         897|   -8.337897|  -10.123592|    0.824000|    0.012017|
|         898|   -8.337323|  -10.124991|    0.824000|    0.012017|
|         899|   -8.336564|  -10.126203|    0.824000|    0.012017|
|         900|   -8.335708|  -10.127236|    0.824000|    0.012017|
|         901|   -8.334836|  -10.128109|    0.824000|    0.012017|
|         902|   -8.334024|  -10.128854|    0.824000|    0.012017|
|         903|   -8.333337|  -10.129510|    0.824000|    0.012017|
|         904|   -8.332831|  -10.130121|    0.824000|    0.012017|
|         905|   -8.332555|  -10.130735|    0.824000|    0.012017|
|         906|   -8.332544|  -10.131400|    0.824000|    0.012017|
|         907|   -8.332826|  -10.132160|    0.824000|    0.012017|
|         908|   -8.333421|  -10.133055|    0.824000|    0.012017|
|         909|   -8.334339|  -10.134120|    0.824000|    0.012017|
|         910|   -8.335583|  -10.135384|    0.824000|    0.012017|
|         911|   -8.337149|  -10.136865|    0.824000|    0.012017|
|         912|   -8.339026|  -10.138576|    0.824000|    0.012017|
|         913|   -8.341198|  -10.140521|    0.824000|    0.012017|
|         914|   -8.343644|  -10.142699|    0.824000|    0.012017|
|         915|   -8.346338|  -10.145102|    0.824000|    0.012017|
|         916|   -8.349250|  -10.147715|    0.824000|    0.012017|
|         917|   -8.352350|  -10.150522|    0.824000|    0.012017|
|         918|   -8.355603|  -10.153504|    0.824000|    0.012017|
|         919|   -8.358973|  -10.156638|    0.824000|    0.012017|
|         920|   -8.362426|  -10.159903|    0.824000|    0.012017|
|         921|   -8.365925|  -10.163280|    0.824000|    0.012017|
|         922|   -8.369439|  -10.166748|    0.824000|    0.012017|
|         923|   -8.372935|  -10.170293|    0.824000|    0.012017|
|         924|   -8.376386|  -10.173899|    0.824000|    0.012017|
|         925|   -8.379766|  -10.177557|    0.824000|    0.012017|
|         926|   -8.383055|  -10.181259|    0.824000|    0.012017|
|         927|   -8.386238|  -10.185001|    0.824000|    0.012017|
|         928|   -8.389304|  -10.188781|    0.824000|    0.012017|
|         929|   -8.392246|  -10.192599|    0.824000|    0.012017|
|         930|   -8.395062|  -10.196457|    0.824000|    0.012017|
|         931|   -8.397757|  -10.200357|    0.824000|    0.012017|
|         932|   -8.400338|  -10.204301|    0.824000|    0.012017|
|         933|   -8.402813|  -10.208291|    0.824000|    0.012017|
|         934|   -8.405198|  -10.212328|    0.824000|    0.012017|
|         935|   -8.407505|  -10.216413|    0.824000|    0.012017|
|         936|   -8.409753|  -10.220542|    0.824000|    0.012017|
|         937|   -8.411955|  -10.224714|    0.824000|    0.012017|
|         938|   -8.414127|  -10.228924|    0.824000|    0.012017|
|         939|   -8.416284|  -10.233165|    0.824000|    0.012017|
|         940|   -8.418436|  -10.237433|    0.824000|    0.012017|
|         941|   -8.420593|  -10.241718|    0.824000|    0.012017|
|         942|   -8.422759|  -10.246013|    0.824000|    0.012017|
|         943|   -8.424937|  -10.250310|    0.824000|    0.012017|
[...]
|        4624|   -5.999180|   -7.957811|    0.824236|    0.012021|
|        4625|   -6.006982|   -7.961729|    0.824236|    0.012021|
|        4626|   -6.014691|   -7.965571|    0.824236|    0.012021|
|        4627|   -6.022239|   -7.969368|    0.824236|    0.012021|
|        4628|   -6.029562|   -7.973150|    0.824236|    0.012021|
|        4629|   -6.036598|   -7.976945|    0.824236|    0.012021|
|        4630|   -6.043292|   -7.980777|    0.824237|    0.012021|
|        4631|   -6.049595|   -7.984666|    0.824237|    0.012020|
|        4632|   -6.055470|   -7.988630|    0.824237|    0.012020|
|        4633|   -6.060887|   -7.992683|    0.824237|    0.012020|
|        4634|   -6.065831|   -7.996836|    0.824237|    0.012020|
|        4635|   -6.070297|   -8.001098|    0.824237|    0.012020|
|        4636|   -6.074292|   -8.005473|    0.824237|    0.012020|
|        4637|   -6.077835|   -8.009966|    0.824237|    0.012020|
|        4638|   -6.080957|   -8.014580|    0.824237|    0.012020|
|        4639|   -6.083696|   -8.019314|    0.824238|    0.012020|
|        4640|   -6.086098|   -8.024170|    0.824238|    0.012020|
|        4641|   -6.088214|   -8.029148|    0.824238|    0.012020|
|        4642|   -6.090099|   -8.034249|    0.824238|    0.012020|
|        4643|   -6.091812|   -8.039473|    0.824238|    0.012020|
|        4644|   -6.093409|   -8.044821|    0.824238|    0.012020|
|        4645|   -6.094944|   -8.050296|    0.824238|    0.012020|
|        4646|   -6.096473|   -8.055900|    0.824238|    0.012020|
|        4647|   -6.098042|   -8.061638|    0.824239|    0.012020|
|        4648|   -6.099696|   -8.067512|    0.824239|    0.012020|
|        4649|   -6.101473|   -8.073526|    0.824239|    0.012020|
|        4650|   -6.103406|   -8.079686|    0.824239|    0.012020|
|        4651|   -6.105522|   -8.085995|    0.824239|    0.012020|
|        4652|   -6.107838|   -8.092455|    0.824239|    0.012021|
|        4653|   -6.110369|   -8.099068|    0.824239|    0.012021|
|        4654|   -6.113121|   -8.105836|    0.824240|    0.012021|
|        4655|   -6.116092|   -8.112757|    0.824240|    0.012021|
|        4656|   -6.119276|   -8.119829|    0.824240|    0.012021|
|        4657|   -6.122660|   -8.127047|    0.824240|    0.012021|
|        4658|   -6.126225|   -8.134403|    0.824240|    0.012021|
|        4659|   -6.129945|   -8.141889|    0.824240|    0.012021|
|        4660|   -6.133792|   -8.149495|    0.824240|    0.012021|
|        4661|   -6.137731|   -8.157206|    0.824241|    0.012021|
|        4662|   -6.141726|   -8.165009|    0.824241|    0.012021|
|        4663|   -6.145736|   -8.172889|    0.824241|    0.012021|
|        4664|   -6.149721|   -8.180828|    0.824241|    0.012022|
|        4665|   -6.153640|   -8.188809|    0.824241|    0.012022|
|        4666|   -6.157452|   -8.196817|    0.824241|    0.012022|
|        4667|   -6.161121|   -8.204833|    0.824241|    0.012022|
|        4668|   -6.164613|   -8.212842|    0.824242|    0.012022|
|        4669|   -6.167899|   -8.220829|    0.824242|    0.012022|
|        4670|   -6.170959|   -8.228782|    0.824242|    0.012022|
|        4671|   -6.173778|   -8.236689|    0.824242|    0.012022|
|        4672|   -6.176348|   -8.244541|    0.824242|    0.012022|
|        4673|   -6.178671|   -8.252332|    0.824242|    0.012022|
|        4674|   -6.180755|   -8.260058|    0.824242|    0.012022|
|        4675|   -6.182619|   -8.267718|    0.824242|    0.012022|
|        4676|   -6.184285|   -8.275312|    0.824243|    0.012022|
|        4677|   -6.185784|   -8.282844|    0.824243|    0.012023|
|        4678|   -6.187151|   -8.290318|    0.824243|    0.012023|
|        4679|   -6.188424|   -8.297742|    0.824243|    0.012023|
|        4680|   -6.189645|   -8.305122|    0.824243|    0.012023|
|        4681|   -6.190857|   -8.312469|    0.824243|    0.012023|
|        4682|   -6.192101|   -8.319791|    0.824243|    0.012023|
|        4683|   -6.193420|   -8.327097|    0.824243|    0.012023|
|        4684|   -6.194855|   -8.334397|    0.824243|    0.012023|
|        4685|   -6.196441|   -8.341698|    0.824243|    0.012023|
|        4686|   -6.198215|   -8.349008|    0.824243|    0.012023|
|        4687|   -6.200206|   -8.356333|    0.824243|    0.012023|
|        4688|   -6.202441|   -8.363677|    0.824243|    0.012023|
|        4689|   -6.204942|   -8.371044|    0.824243|    0.012023|
|        4690|   -6.207727|   -8.378434|    0.824243|    0.012023|
|        4691|   -6.210808|   -8.385846|    0.824243|    0.012023|
|        4692|   -6.214193|   -8.393277|    0.824244|    0.012023|
|        4693|   -6.217886|   -8.400721|    0.824244|    0.012023|
|        4694|   -6.221885|   -8.408169|    0.824244|    0.012023|
|        4695|   -6.226183|   -8.415611|    0.824244|    0.012023|
|        4696|   -6.230767|   -8.423034|    0.824244|    0.012023|
|        4697|   -6.235623|   -8.430424|    0.824244|    0.012023|
|        4698|   -6.240728|   -8.437763|    0.824244|    0.012023|
|        4699|   -6.246055|   -8.445035|    0.824243|    0.012023|
|        4700|   -6.251576|   -8.452219|    0.824243|    0.012023|
|        4701|   -6.257253|   -8.459295|    0.824243|    0.012023|
|        4702|   -6.263050|   -8.466241|    0.824243|    0.012023|
|        4703|   -6.268924|   -8.473035|    0.824243|    0.012023|
|        4704|   -6.274829|   -8.479654|    0.824243|    0.012023|
|        4705|   -6.280719|   -8.486076|    0.824243|    0.012023|
|        4706|   -6.286545|   -8.492277|    0.824243|    0.012022|
|        4707|   -6.292260|   -8.498235|    0.824243|    0.012022|
|        4708|   -6.297814|   -8.503929|    0.824243|    0.012022|
|        4709|   -6.303162|   -8.509339|    0.824243|    0.012022|
|        4710|   -6.308263|   -8.514445|    0.824243|    0.012022|
|        4711|   -6.313076|   -8.519230|    0.824243|    0.012022|
|        4712|   -6.317570|   -8.523676|    0.824243|    0.012022|
|        4713|   -6.321718|   -8.527769|    0.824243|    0.012022|
|        4714|   -6.325499|   -8.531493|    0.824243|    0.012022|
|        4715|   -6.328900|   -8.534836|    0.824244|    0.012022|
|        4716|   -6.331917|   -8.537786|    0.824244|    0.012022|
|        4717|   -6.334550|   -8.540331|    0.824244|    0.012022|
|        4718|   -6.336808|   -8.542460|    0.824244|    0.012021|
|        4719|   -6.338704|   -8.544164|    0.824244|    0.012021|
|        4720|   -6.340258|   -8.545434|    0.824244|    0.012021|
|        4721|   -6.341492|   -8.546262|    0.824244|    0.012021|
|        4722|   -6.342432|   -8.546640|    0.824244|    0.012021|
|        4723|   -6.343105|   -8.546564|    0.824244|    0.012021|
|        4724|   -6.343539|   -8.546030|    0.824244|    0.012021|
|        4725|   -6.343762|   -8.545035|    0.824244|    0.012021|
|        4726|   -6.343800|   -8.543583|    0.824245|    0.012021|
|        4727|   -6.343679|   -8.541678|    0.824245|    0.012021|
|        4728|   -6.343422|   -8.539329|    0.824245|    0.012020|
|        4729|   -6.343049|   -8.536548|    0.824245|    0.012020|
|        4730|   -6.342579|   -8.533354|    0.824245|    0.012020|
|        4731|   -6.342028|   -8.529767|    0.824245|    0.012020|
|        4732|   -6.341408|   -8.525815|    0.824246|    0.012020|
|        4733|   -6.340731|   -8.521528|    0.824246|    0.012020|
|        4734|   -6.340005|   -8.516940|    0.824246|    0.012020|
|        4735|   -6.339238|   -8.512087|    0.824246|    0.012020|
|        4736|   -6.338435|   -8.507011|    0.824247|    0.012020|
|        4737|   -6.337601|   -8.501752|    0.824247|    0.012020|
|        4738|   -6.336739|   -8.496351|    0.824247|    0.012020|
|        4739|   -6.335852|   -8.490853|    0.824247|    0.012019|
|        4740|   -6.334942|   -8.485297|    0.824247|    0.012019|
|        4741|   -6.334011|   -8.479725|    0.824248|    0.012019|
|        4742|   -6.333062|   -8.474175|    0.824248|    0.012019|
|        4743|   -6.332097|   -8.468682|    0.824248|    0.012019|
|        4744|   -6.331119|   -8.463280|    0.824248|    0.012019|
|        4745|   -6.330131|   -8.457998|    0.824248|    0.012019|
|        4746|   -6.329137|   -8.452859|    0.824249|    0.012019|
|        4747|   -6.328141|   -8.447886|    0.824249|    0.012019|
|        4748|   -6.327149|   -8.443095|    0.824249|    0.012019|
|        4749|   -6.326166|   -8.438499|    0.824249|    0.012019|
|        4750|   -6.325197|   -8.434109|    0.824249|    0.012019|
|        4751|   -6.324252|   -8.429933|    0.824250|    0.012019|
|        4752|   -6.323336|   -8.425974|    0.824250|    0.012019|
|        4753|   -6.322460|   -8.422235|    0.824250|    0.012019|
|        4754|   -6.321632|   -8.418715|    0.824250|    0.012019|
|        4755|   -6.320862|   -8.415411|    0.824250|    0.012019|
|        4756|   -6.320162|   -8.412320|    0.824250|    0.012019|
|        4757|   -6.319542|   -8.409435|    0.824251|    0.012019|
|        4758|   -6.319016|   -8.406751|    0.824251|    0.012019|
|        4759|   -6.318595|   -8.404260|    0.824251|    0.012019|
|        4760|   -6.318293|   -8.401954|    0.824251|    0.012019|
|        4761|   -6.318123|   -8.399825|    0.824251|    0.012019|
|        4762|   -6.318100|   -8.397865|    0.824251|    0.012019|
|        4763|   -6.318238|   -8.396065|    0.824251|    0.012019|
|        4764|   -6.318551|   -8.394418|    0.824251|    0.012019|
|        4765|   -6.319052|   -8.392915|    0.824252|    0.012019|
|        4766|   -6.319755|   -8.391551|    0.824252|    0.012019|
|        4767|   -6.320673|   -8.390318|    0.824252|    0.012019|
|        4768|   -6.321817|   -8.389210|    0.824252|    0.012019|
|        4769|   -6.323200|   -8.388221|    0.824252|    0.012019|
|        4770|   -6.324829|   -8.387346|    0.824252|    0.012019|
|        4771|   -6.326714|   -8.386581|    0.824252|    0.012019|
|        4772|   -6.328861|   -8.385921|    0.824252|    0.012019|
|        4773|   -6.331274|   -8.385363|    0.824252|    0.012019|
|        4774|   -6.333956|   -8.384902|    0.824252|    0.012019|
|        4775|   -6.336906|   -8.384536|    0.824252|    0.012019|
|        4776|   -6.340122|   -8.384261|    0.824252|    0.012019|
|        4777|   -6.343597|   -8.384074|    0.824252|    0.012019|
|        4778|   -6.347323|   -8.383972|    0.824252|    0.012019|
|        4779|   -6.351288|   -8.383952|    0.824252|    0.012019|
|        4780|   -6.355476|   -8.384011|    0.824252|    0.012020|
|        4781|   -6.359870|   -8.384147|    0.824253|    0.012020|
|        4782|   -6.364446|   -8.384354|    0.824253|    0.012020|
|        4783|   -6.369178|   -8.384631|    0.824253|    0.012020|
|        4784|   -6.374038|   -8.384974|    0.824253|    0.012020|
|        4785|   -6.378992|   -8.385379|    0.824253|    0.012020|
|        4786|   -6.384004|   -8.385843|    0.824252|    0.012020|
|        4787|   -6.389036|   -8.386362|    0.824252|    0.012020|
|        4788|   -6.394046|   -8.386933|    0.824252|    0.012020|
|        4789|   -6.398992|   -8.387552|    0.824252|    0.012020|
|        4790|   -6.403829|   -8.388214|    0.824252|    0.012020|
|        4791|   -6.408512|   -8.388917|    0.824252|    0.012020|
|        4792|   -6.412999|   -8.389657|    0.824252|    0.012021|
|        4793|   -6.417245|   -8.390430|    0.824252|    0.012021|
|        4794|   -6.421213|   -8.391233|    0.824252|    0.012021|
|        4795|   -6.424865|   -8.392062|    0.824252|    0.012021|
|        4796|   -6.428171|   -8.392914|    0.824252|    0.012021|
|        4797|   -6.431105|   -8.393786|    0.824252|    0.012021|
|        4798|   -6.433647|   -8.394674|    0.824252|    0.012021|
|        4799|   -6.435786|   -8.395574|    0.824252|    0.012021|
|        4800|   -6.437516|   -8.396485|    0.824252|    0.012021|
|        4801|   -6.438839|   -8.397401|    0.824252|    0.012021|
|        4802|   -6.439766|   -8.398321|    0.824252|    0.012021|
|        4803|   -6.440312|   -8.399240|    0.824251|    0.012021|
|        4804|   -6.440500|   -8.400155|    0.824251|    0.012021|
|        4805|   -6.440358|   -8.401063|    0.824251|    0.012021|
|        4806|   -6.439918|   -8.401960|    0.824251|    0.012021|
|        4807|   -6.439215|   -8.402842|    0.824251|    0.012021|
|        4808|   -6.438288|   -8.403707|    0.824251|    0.012021|
|        4809|   -6.437175|   -8.404550|    0.824251|    0.012021|
|        4810|   -6.435918|   -8.405369|    0.824251|    0.012022|
|        4811|   -6.434555|   -8.406158|    0.824251|    0.012022|
|        4812|   -6.433126|   -8.406917|    0.824251|    0.012022|
|        4813|   -6.431667|   -8.407639|    0.824250|    0.012022|
|        4814|   -6.430215|   -8.408324|    0.824250|    0.012022|
|        4815|   -6.428801|   -8.408968|    0.824250|    0.012022|
|        4816|   -6.427457|   -8.409568|    0.824250|    0.012022|
|        4817|   -6.426211|   -8.410122|    0.824250|    0.012022|
|        4818|   -6.425087|   -8.410629|    0.824250|    0.012022|
|        4819|   -6.424107|   -8.411085|    0.824250|    0.012022|
|        4820|   -6.423291|   -8.411491|    0.824250|    0.012022|
|        4821|   -6.422656|   -8.411844|    0.824250|    0.012022|
|        4822|   -6.422216|   -8.412145|    0.824250|    0.012022|
|        4823|   -6.421982|   -8.412393|    0.824250|    0.012022|
|        4824|   -6.421965|   -8.412589|    0.824250|    0.012022|
|        4825|   -6.422172|   -8.412732|    0.824250|    0.012021|
|        4826|   -6.422607|   -8.412825|    0.824250|    0.012021|
|        4827|   -6.423276|   -8.412867|    0.824250|    0.012021|
|        4828|   -6.424179|   -8.412860|    0.824250|    0.012021|
|        4829|   -6.425317|   -8.412806|    0.824250|    0.012021|
|        4830|   -6.426689|   -8.412706|    0.824250|    0.012021|
|        4831|   -6.428293|   -8.412562|    0.824250|    0.012021|
|        4832|   -6.430126|   -8.412376|    0.824250|    0.012021|
|        4833|   -6.432184|   -8.412149|    0.824250|    0.012021|
|        4834|   -6.434463|   -8.411884|    0.824250|    0.012007|
+-----------------------------------------------------------------------+
|Fixed CL Mode (Finite Difference)       |Value                         |
+-----------------------------------------------------------------------+
|Delta CL / Delta AoA                    |0.249588                      |
|Delta CD / Delta CL                     |0.0174826                     |
|Delta CMz / Delta CL                    |0.00728464                    |
+-----------------------------------------------------------------------+
Writing Flow Meta-Data file: flow.meta

--------------------------- Finalizing Solver ---------------------------
Deleted CNumerics container.
Deleted CIntegration container.
Deleted CSolver container.
Deleted CIteration container.
Deleted CInterface container.
Deleted CGeometry container.
Deleted CFreeFormDefBox class.
Deleted CSurfaceMovement class.
Deleted CVolumetricMovement class.
Deleted CConfig container.
Deleted nInst container.
Deleted COutput class.
-------------------------------------------------------------------------

------------------------- Exit Success (SU2_CFD) ------------------------


-------------------------------------------------------------------------
|    ___ _   _ ___                                                      |
|   / __| | | |_  )   Release 8.0.0 "Harrier"                           |
|   \__ \ |_| |/ /                                                      |
|   |___/\___//___|   Suite (Solution Exporting Code)                   |
|                                                                       |
-------------------------------------------------------------------------
| SU2 Project Website: https://su2code.github.io                        |
|                                                                       |
| The SU2 Project is maintained by the SU2 Foundation                   |
| (http://su2foundation.org)                                            |
-------------------------------------------------------------------------
| Copyright 2012-2023, SU2 Contributors                                 |
|                                                                       |
| SU2 is free software; you can redistribute it and/or                  |
| modify it under the terms of the GNU Lesser General Public            |
| License as published by the Free Software Foundation; either          |
| version 2.1 of the License, or (at your option) any later version.    |
|                                                                       |
| SU2 is distributed in the hope that it will be useful,                |
| but WITHOUT ANY WARRANTY; without even the implied warranty of        |
| MERCHANTABILITY or FITNESS FOR A PARTICULAR PURPOSE. See the GNU      |
| Lesser General Public License for more details.                       |
|                                                                       |
| You should have received a copy of the GNU Lesser General Public      |
| License along with SU2. If not, see <http://www.gnu.org/licenses/>.   |
-------------------------------------------------------------------------

----------------- Physical Case Definition ( Zone 0 ) -------------------
Input mesh file name: mesh_RAE2822_turb_deform.su2

-------------------- Output Information ( Zone 0 ) ----------------------
The tabular file format is CSV (.csv).
Flow variables file name: flow.

------------- Config File Boundary Information ( Zone 0 ) ---------------
+-----------------------------------------------------------------------+
|                        Marker Type|                        Marker Name|
+-----------------------------------------------------------------------+
|                          Far-field|                           FARFIELD|
+-----------------------------------------------------------------------+
|                     Heat flux wall|                            AIRFOIL|
+-----------------------------------------------------------------------+
Two dimensional problem.
13937 grid points before partitioning.
22842 volume elements before partitioning.
2 surface markers.
192 boundary elements in index 0 (Marker = AIRFOIL).
40 boundary elements in index 1 (Marker = FARFIELD).
Executing the partitioning functions.
Building the graph adjacency structure.
Calling ParMETIS... graph partitioning complete (831 edge cuts).
Distributing ParMETIS coloring.
Rebalancing vertices.
Rebalancing volume element connectivity.
Rebalancing markers and surface elements.
14875 vertices including ghost points. 
23674 interior elements including halo cells. 
18780 triangles.
4894 quadrilaterals.
Establishing MPI communication patterns.
Identify vertices.
Storing a mapping from global to local point index.

------------------------- Solution Postprocessing -----------------------
Reading and storing the solution from restart_flow.
Volume output fields: COORDINATES, SOLUTION
  Info: Ignoring the following screen output fields:
  RMS_DENSITY, RMS_NU_TILDE, LIFT, DRAG
Screen output fields: INNER_ITER
  Info: Ignoring the following history output groups:
  RMS_RES, AERO_COEFF
History output group(s): ITER
Warning: No (valid) fields chosen for convergence monitoring. Convergence monitoring inactive.
Warning: No (valid) fields chosen for time convergence monitoring. Time convergence monitoring inactive.
|Paraview                           |flow.vtu                           |
|Paraview surface                   |surface_flow.vtu                   |
|CSV file                           |surface_flow.csv                   |

------------------------- Finalize Solver -------------------------
Deleted CGeometry container.
Deleted CSolver class.
Deleted CConfig container.
Deleted COutput class.

Completed in 0.016833 seconds on 6 cores.

------------------------- Exit Success (SU2_SOL) ------------------------

