
-------------------------------------------------------------------------
|    ___ _   _ ___                                                      |
|   / __| | | |_  )   Release 8.0.0 "Harrier"                           |
|   \__ \ |_| |/ /                                                      |
|   |___/\___//___|   Suite (Computational Fluid Dynamics Code)         |
|                                                                       |
-------------------------------------------------------------------------
| SU2 Project Website: https://su2code.github.io                        |
|                                                                       |
| The SU2 Project is maintained by the SU2 Foundation                   |
| (http://su2foundation.org)                                            |
-------------------------------------------------------------------------
| Copyright 2012-2023, SU2 Contributors                                 |
|                                                                       |
| SU2 is free software; you can redistribute it and/or                  |
| modify it under the terms of the GNU Lesser General Public            |
| License as published by the Free Software Foundation; either          |
| version 2.1 of the License, or (at your option) any later version.    |
|                                                                       |
| SU2 is distributed in the hope that it will be useful,                |
| but WITHOUT ANY WARRANTY; without even the implied warranty of        |
| MERCHANTABILITY or FITNESS FOR A PARTICULAR PURPOSE. See the GNU      |
| Lesser General Public License for more details.                       |
|                                                                       |
| You should have received a copy of the GNU Lesser General Public      |
| License along with SU2. If not, see <http://www.gnu.org/licenses/>.   |
-------------------------------------------------------------------------

Parsing config file for zone 0

----------------- Physical Case Definition ( Zone 0 ) -------------------
Compressible RANS equations.
Turbulence model: Spalart-Allmaras-noft2
Hybrid RANS/LES: No Hybrid RANS/LES
Mach number: 0.734.
Angle of attack (AoA): 2.31 deg, and angle of sideslip (AoS): 0 deg.
Reynolds number: 6.5e+06. Reference length 1.
Fixed CL mode, target value: 0.824.
Reading and writing binary SU2 native restart files.
Read flow solution from: solution_flow.dat.
Dimensional simulation.
The reference area is 1 m^2.
The semi-span will be computed using the max y(3D) value.
The reference length is 1 m.
Reference origin for moment evaluation is (0.25, 0, 0).
Surface(s) where the force coefficients are evaluated: AIRFOIL.

Surface(s) plotted in the output file: AIRFOIL.
Surface(s) affected by the design variables: AIRFOIL.
Input mesh file name: mesh_RAE2822_turb_deform.su2

--------------- Space Numerical Integration ( Zone 0 ) ------------------
Jameson-Schmidt-Turkel scheme (2nd order in space) for the flow inviscid terms.
JST viscous coefficients (2nd & 4th): 0.5, 0.02.
The method includes a grid stretching correction (p = 0.3).
Scalar upwind solver for the turbulence model.
First order integration in space.
Average of gradients with correction (viscous flow terms).
Average of gradients with correction (viscous turbulence terms).
Gradient for viscous and source terms: inverse-distance weighted Least-Squares.

--------------- Time Numerical Integration  ( Zone 0 ) ------------------
Local time stepping (steady state simulation).
Euler implicit method for the flow equations.
FGMRES is used for solving the linear system.
Using a ILU(0) preconditioning.
Convergence criteria of the linear solver: 1e-06.
Max number of linear iterations: 10.
No CFL adaptation.
Courant-Friedrichs-Lewy number:       10
Euler implicit time integration for the turbulence model.

------------------ Convergence Criteria  ( Zone 0 ) ---------------------
Maximum number of solver subiterations: 5500.
Begin convergence monitoring at iteration 10.
Residual minimum value: 1e-12.
Cauchy series min. value: 1e-06.
Number of Cauchy elements: 100.
Begin windowed time average at iteration 0.

-------------------- Output Information ( Zone 0 ) ----------------------
File writing frequency: 
+------------------------------------+
|                     File| Frequency|
+------------------------------------+
|                  RESTART|     10000|
|                 PARAVIEW|     10000|
|         SURFACE_PARAVIEW|     10000|
|              SURFACE_CSV|     10000|
+------------------------------------+
Writing the convergence history file every 1 inner iterations.
Writing the screen convergence history every 1 inner iterations.
The tabular file format is CSV (.csv).
Convergence history file name: history_direct.
Forces breakdown file name: forces_breakdown.dat.
Surface file name: surface_flow.
Volume file name: flow.
Restart file name: restart_flow.dat.

------------- Config File Boundary Information ( Zone 0 ) ---------------
+-----------------------------------------------------------------------+
|                        Marker Type|                        Marker Name|
+-----------------------------------------------------------------------+
|                          Far-field|                           FARFIELD|
+-----------------------------------------------------------------------+
|                     Heat flux wall|                            AIRFOIL|
+-----------------------------------------------------------------------+

-------------------- Output Preprocessing ( Zone 0 ) --------------------

WARNING: SURFACE_PRESSURE_DROP can only be computed for at least 2 surfaces (outlet, inlet, ...)

Screen output fields: INNER_ITER, RMS_DENSITY, RMS_NU_TILDE, LIFT, DRAG
History output group(s): ITER, RMS_RES, AERO_COEFF
Convergence field(s): RMS_DENSITY
Warning: No (valid) fields chosen for time convergence monitoring. Time convergence monitoring inactive.
Volume output fields: COORDINATES, SOLUTION, PRIMITIVE

------------------- Geometry Preprocessing ( Zone 0 ) -------------------
Two dimensional problem.
13937 grid points before partitioning.
22842 volume elements before partitioning.
2 surface markers.
192 boundary elements in index 0 (Marker = AIRFOIL).
40 boundary elements in index 1 (Marker = FARFIELD).
Executing the partitioning functions.
Building the graph adjacency structure.
Calling ParMETIS... graph partitioning complete (831 edge cuts).
Distributing ParMETIS coloring.
Rebalancing vertices.
Rebalancing volume element connectivity.
Rebalancing markers and surface elements.
14875 vertices including ghost points. 
23674 interior elements including halo cells. 
18780 triangles.
4894 quadrilaterals.
Establishing MPI communication patterns.
Setting point connectivity.
Renumbering points (Reverse Cuthill McKee Ordering).
Recomputing point connectivity.
Setting element connectivity.
Checking the numerical grid orientation.
All volume elements are correctly orientend.
All surface elements are correctly orientend.
Identifying edges and vertices.
Setting the control volume structure.
Area of the computational grid: 32209.9.
Searching for the closest normal neighbors to the surfaces.
Storing a mapping from global to local point index.
Compute the surface curvature.
Max K: 159.053. Mean K: 7.31882. Standard deviation K: 21.7456.
Checking for periodicity.
Computing mesh quality statistics for the dual control volumes.
+--------------------------------------------------------------+
|           Mesh Quality Metric|        Minimum|        Maximum|
+--------------------------------------------------------------+
|    Orthogonality Angle (deg.)|        75.2882|         89.999|
|     CV Face Area Aspect Ratio|        1.00176|        3358.36|
|           CV Sub-Volume Ratio|        1.00063|        1210.67|
+--------------------------------------------------------------+
Finding max control volume width.
Communicating number of neighbors.
Wetted area = 2.02332 m.
Area projection in the x-plane = 0.123839 m, y-plane = 0.995873 m.
Max. coordinate in the x-direction = 1 m, y-direction = 0.063631 m.
Min. coordinate in the x-direction = 0 m, y-direction = -0.0593156 m.
Computing wall distances.

-------------------- Solver Preprocessing ( Zone 0 ) --------------------
WARNING: AoA in the solution file (2.79687 deg.) +
         AoA offset in mesh file (0 deg.) = 2.79687 deg.
WARNING: SU2 will use the dCD/dCL provided in the direct solution file: 0.0286681.
WARNING: SU2 will use the dCMz/dCL provided in the direct solution file: 0.00305475.
Viscous flow: Computing pressure using the ideal gas law
based on the free-stream temperature and a density computed
from the Reynolds number.
Force coefficients computed using free-stream values.

-- Models:
+------------------------------------------------------------------------------+
|          Viscosity Model|        Conductivity Model|              Fluid Model|
+------------------------------------------------------------------------------+
|               SUTHERLAND|          CONSTANT_PRANDTL|             STANDARD_AIR|
+------------------------------------------------------------------------------+
-- Fluid properties:
+------------------------------------------------------------------------------+
|                  Name|    Dim. value|    Ref. value|      Unit|Non-dim. value|
+------------------------------------------------------------------------------+
|        Ref. Viscosity|     1.716e-05|             1|   N.s/m^2|     1.716e-05|
|      Sutherland Temp.|        273.15|             1|         K|        273.15|
|     Sutherland Const.|         110.4|             1|         K|         110.4|
+------------------------------------------------------------------------------+
|        Prandtl (Lam.)|             -|             -|         -|          0.71|
|       Prandtl (Turb.)|             -|             -|         -|           0.9|
+------------------------------------------------------------------------------+
|          Gas Constant|       287.058|             1|  N.m/kg.K|       287.058|
|      Spec. Heat Ratio|             -|             -|         -|           1.4|
+------------------------------------------------------------------------------+
-- Initial and free-stream conditions:
+------------------------------------------------------------------------------+
|                  Name|    Dim. value|    Ref. value|      Unit|Non-dim. value|
+------------------------------------------------------------------------------+
|       Static Pressure|         38515|             1|        Pa|         38515|
|               Density|      0.465631|             1|    kg/m^3|      0.465631|
|           Temperature|        288.15|             1|         K|        288.15|
|          Total Energy|        237984|             1|   m^2/s^2|        237984|
|            Velocity-X|        249.48|             1|       m/s|        249.48|
|            Velocity-Y|        12.188|             1|       m/s|        12.188|
|    Velocity Magnitude|       249.778|             1|       m/s|       249.778|
+------------------------------------------------------------------------------+
|             Viscosity|    1.7893e-05|             1|   N.s/m^2|    1.7893e-05|
|          Conductivity|             -|             1|   W/m^2.K|             -|
|     Turb. Kin. Energy|       233.959|             1|   m^2/s^2|       233.959|
|     Spec. Dissipation|        608834|             1|       1/s|        608834|
+------------------------------------------------------------------------------+
|           Mach Number|             -|             -|         -|         0.734|
|       Reynolds Number|             -|             -|         -|       6.5e+06|
+------------------------------------------------------------------------------+
Initialize Jacobian structure (Navier-Stokes). MG level: 0.
Initialize Jacobian structure (SA model).

------------------- Numerics Preprocessing ( Zone 0 ) -------------------

----------------- Integration Preprocessing ( Zone 0 ) ------------------

------------------- Iteration Preprocessing ( Zone 0 ) ------------------
Euler/Navier-Stokes/RANS fluid iteration.

------------------------------ Begin Solver -----------------------------

Simulation Run using the Single-zone Driver
WARNING: SU2 was not compiled for an AVX-capable architecture. Performance could be better,
         see https://su2code.github.io/docs_v7/Build-SU2-Linux-MacOS/#compiler-optimizations
+----------------------------------------------------------------+
|  Inner_Iter|    rms[Rho]|     rms[nu]|          CL|          CD|
+----------------------------------------------------------------+
|           0|   -4.731358|   -5.960083|    0.823959|    0.012091|
|           1|   -4.775353|   -6.047953|    0.823929|    0.012078|
|           2|   -4.819174|   -6.155213|    0.823914|    0.012080|
|           3|   -4.844958|   -6.277052|    0.823911|    0.012088|
|           4|   -4.854187|   -6.407832|    0.823912|    0.012097|
|           5|   -4.853727|   -6.532897|    0.823914|    0.012104|
|           6|   -4.849544|   -6.621435|    0.823913|    0.012108|
|           7|   -4.845008|   -6.648684|    0.823910|    0.012107|
|           8|   -4.841122|   -6.631888|    0.823907|    0.012105|
|           9|   -4.837512|   -6.602675|    0.823905|    0.012102|
|          10|   -4.833427|   -6.576007|    0.823906|    0.012098|
|          11|   -4.828269|   -6.554068|    0.823912|    0.012094|
|          12|   -4.821667|   -6.534709|    0.823922|    0.012091|
|          13|   -4.813385|   -6.515500|    0.823935|    0.012089|
|          14|   -4.803325|   -6.495100|    0.823951|    0.012088|
|          15|   -4.791623|   -6.473285|    0.823970|    0.012088|
|          16|   -4.778721|   -6.450480|    0.823991|    0.012090|
|          17|   -4.765314|   -6.427296|    0.824013|    0.012092|
|          18|   -4.752162|   -6.404321|    0.824035|    0.012097|
|          19|   -4.739898|   -6.382060|    0.824059|    0.012102|
|          20|   -4.728894|   -6.360967|    0.824082|    0.012109|
|          21|   -4.719233|   -6.341469|    0.824105|    0.012116|
|          22|   -4.710775|   -6.323955|    0.824127|    0.012124|
|          23|   -4.703265|   -6.308775|    0.824148|    0.012132|
|          24|   -4.696451|   -6.296210|    0.824167|    0.012140|
|          25|   -4.690169|   -6.286450|    0.824184|    0.012148|
|          26|   -4.684372|   -6.279576|    0.824198|    0.012155|
|          27|   -4.679096|   -6.275553|    0.824209|    0.012162|
|          28|   -4.674410|   -6.274236|    0.824216|    0.012167|
|          29|   -4.670358|   -6.275391|    0.824219|    0.012171|
|          30|   -4.666928|   -6.278735|    0.824220|    0.012175|
|          31|   -4.664046|   -6.283990|    0.824217|    0.012176|
|          32|   -4.661586|   -6.290910|    0.824211|    0.012177|
|          33|   -4.659405|   -6.299427|    0.824203|    0.012177|
|          34|   -4.657368|   -6.309487|    0.824193|    0.012176|
|          35|   -4.655368|   -6.321043|    0.824182|    0.012175|
|          36|   -4.653336|   -6.333984|    0.824171|    0.012173|
|          37|   -4.651241|   -6.348023|    0.824161|    0.012172|
|          38|   -4.649094|   -6.362582|    0.824151|    0.012170|
|          39|   -4.646939|   -6.376731|    0.824143|    0.012168|
|          40|   -4.644844|   -6.389211|    0.824137|    0.012167|
|          41|   -4.642895|   -6.398604|    0.824132|    0.012167|
|          42|   -4.641183|   -6.403659|    0.824130|    0.012166|
|          43|   -4.639788|   -6.403667|    0.824130|    0.012167|
|          44|   -4.638779|   -6.398700|    0.824131|    0.012168|
|          45|   -4.638204|   -6.389568|    0.824134|    0.012169|
|          46|   -4.638083|   -6.377519|    0.824139|    0.012171|
|          47|   -4.638417|   -6.363871|    0.824144|    0.012173|
|          48|   -4.639195|   -6.349734|    0.824151|    0.012176|
|          49|   -4.640376|   -6.335891|    0.824157|    0.012178|
|          50|   -4.641922|   -6.322793|    0.824164|    0.012181|
|          51|   -4.643794|   -6.310631|    0.824170|    0.012183|
|          52|   -4.645954|   -6.299425|    0.824176|    0.012185|
|          53|   -4.648375|   -6.289116|    0.824180|    0.012187|
|          54|   -4.651032|   -6.279625|    0.824184|    0.012189|
|          55|   -4.653909|   -6.270909|    0.824188|    0.012190|
|          56|   -4.657001|   -6.262954|    0.824190|    0.012192|
|          57|   -4.660312|   -6.255791|    0.824191|    0.012193|
|          58|   -4.663855|   -6.249501|    0.824192|    0.012193|
|          59|   -4.667641|   -6.244161|    0.824192|    0.012194|
|          60|   -4.671680|   -6.239829|    0.824191|    0.012194|
|          61|   -4.675980|   -6.236526|    0.824191|    0.012195|
|          62|   -4.680539|   -6.234225|    0.824190|    0.012195|
|          63|   -4.685350|   -6.232851|    0.824188|    0.012195|
|          64|   -4.690394|   -6.232284|    0.824187|    0.012196|
|          65|   -4.695650|   -6.232371|    0.824186|    0.012196|
|          66|   -4.701097|   -6.232940|    0.824186|    0.012196|
|          67|   -4.706714|   -6.233817|    0.824185|    0.012197|
|          68|   -4.712489|   -6.234840|    0.824185|    0.012198|
|          69|   -4.718415|   -6.235870|    0.824185|    0.012198|
|          70|   -4.724491|   -6.236796|    0.824186|    0.012199|
|          71|   -4.730719|   -6.237535|    0.824186|    0.012200|
|          72|   -4.737100|   -6.238062|    0.824187|    0.012201|
|          73|   -4.743626|   -6.238372|    0.824188|    0.012202|
|          74|   -4.750280|   -6.238484|    0.824189|    0.012203|
|          75|   -4.757030|   -6.238431|    0.824190|    0.012205|
|          76|   -4.763840|   -6.238259|    0.824191|    0.012206|
|          77|   -4.770666|   -6.238001|    0.824192|    0.012207|
|          78|   -4.777467|   -6.237705|    0.824193|    0.012208|
|          79|   -4.784209|   -6.237422|    0.824193|    0.012209|
|          80|   -4.790876|   -6.237198|    0.824193|    0.012210|
|          81|   -4.797468|   -6.237067|    0.824193|    0.012211|
|          82|   -4.804000|   -6.237050|    0.824192|    0.012212|
|          83|   -4.810504|   -6.237158|    0.824191|    0.012213|
|          84|   -4.817017|   -6.237402|    0.824190|    0.012213|
|          85|   -4.823576|   -6.237794|    0.824189|    0.012214|
|          86|   -4.830210|   -6.238335|    0.824188|    0.012214|
|          87|   -4.836934|   -6.239022|    0.824186|    0.012215|
|          88|   -4.843742|   -6.239847|    0.824185|    0.012215|
|          89|   -4.850607|   -6.240792|    0.824183|    0.012216|
|          90|   -4.857485|   -6.241842|    0.824181|    0.012216|
|          91|   -4.864310|   -6.242982|    0.824180|    0.012216|
|          92|   -4.871005|   -6.244195|    0.824178|    0.012217|
|          93|   -4.877487|   -6.245468|    0.824177|    0.012217|
|          94|   -4.883672|   -6.246792|    0.824175|    0.012217|
|          95|   -4.889479|   -6.248161|    0.824174|    0.012217|
|          96|   -4.894837|   -6.249572|    0.824173|    0.012218|
|          97|   -4.899687|   -6.251027|    0.824172|    0.012218|
|          98|   -4.903985|   -6.252531|    0.824172|    0.012218|
|          99|   -4.907701|   -6.254092|    0.824171|    0.012218|
|         100|   -4.910826|   -6.255720|    0.824170|    0.012219|
|         101|   -4.913365|   -6.257427|    0.824170|    0.012207|
+-----------------------------------------------------------------------+
|Fixed CL Mode                           |Value                         |
+-----------------------------------------------------------------------+
|Current CL                              |0.82417                       |
|Target CL                               |0.824                         |
|Previous AOA                            |2.79687                       |
|Changed AoA by                          |-0.000852387                  |
+-----------------------------------------------------------------------+
+----------------------------------------------------------------+
|  Inner_Iter|    rms[Rho]|     rms[nu]|          CL|          CD|
+----------------------------------------------------------------+
|         102|   -3.262684|   -6.257868|    0.824170|    0.012207|
|         103|   -3.646509|   -6.260449|    0.824169|    0.012207|
|         104|   -3.887897|   -6.262665|    0.824169|    0.012208|
|         105|   -3.964202|   -6.264927|    0.824169|    0.012208|
|         106|   -4.015925|   -6.267308|    0.824168|    0.012209|
|         107|   -4.083384|   -6.269837|    0.824167|    0.012210|
|         108|   -4.166707|   -6.272532|    0.824166|    0.012210|
|         109|   -4.253489|   -6.275408|    0.824165|    0.012211|
|         110|   -4.328411|   -6.278478|    0.824164|    0.012212|
|         111|   -4.384099|   -6.281752|    0.824162|    0.012213|
|         112|   -4.422057|   -6.285238|    0.824160|    0.012213|
|         113|   -4.445402|   -6.288943|    0.824158|    0.012214|
|         114|   -4.457165|   -6.292875|    0.824155|    0.012215|
|         115|   -4.462478|   -6.297038|    0.824153|    0.012216|
|         116|   -4.467554|   -6.301432|    0.824150|    0.012216|
|         117|   -4.476760|   -6.306057|    0.824146|    0.012217|
|         118|   -4.491239|   -6.310911|    0.824143|    0.012217|
|         119|   -4.509400|   -6.315986|    0.824139|    0.012218|
|         120|   -4.528388|   -6.321278|    0.824135|    0.012218|
|         121|   -4.545836|   -6.326776|    0.824131|    0.012219|
|         122|   -4.561010|   -6.332467|    0.824127|    0.012219|
|         123|   -4.574666|   -6.338337|    0.824123|    0.012219|
|         124|   -4.587970|   -6.344365|    0.824119|    0.012219|
|         125|   -4.601549|   -6.350531|    0.824115|    0.012219|
|         126|   -4.615233|   -6.356812|    0.824111|    0.012219|
|         127|   -4.628320|   -6.363183|    0.824107|    0.012219|
|         128|   -4.640007|   -6.369618|    0.824103|    0.012219|
|         129|   -4.649683|   -6.376090|    0.824100|    0.012219|
|         130|   -4.657060|   -6.382575|    0.824096|    0.012219|
|         131|   -4.662205|   -6.389049|    0.824093|    0.012219|
|         132|   -4.665525|   -6.395488|    0.824090|    0.012219|
|         133|   -4.667706|   -6.401869|    0.824087|    0.012218|
|         134|   -4.669572|   -6.408174|    0.824084|    0.012218|
|         135|   -4.671901|   -6.414384|    0.824082|    0.012218|
|         136|   -4.675278|   -6.420482|    0.824079|    0.012218|
|         137|   -4.680004|   -6.426452|    0.824077|    0.012218|
|         138|   -4.686081|   -6.432278|    0.824074|    0.012218|
|         139|   -4.693241|   -6.437946|    0.824072|    0.012218|
|         140|   -4.701008|   -6.443443|    0.824069|    0.012218|
|         141|   -4.708784|   -6.448758|    0.824066|    0.012218|
|         142|   -4.715982|   -6.453878|    0.824064|    0.012218|
|         143|   -4.722164|   -6.458792|    0.824061|    0.012218|
|         144|   -4.727151|   -6.463491|    0.824057|    0.012218|
|         145|   -4.731071|   -6.467964|    0.824054|    0.012218|
|         146|   -4.734296|   -6.472204|    0.824050|    0.012218|
|         147|   -4.737327|   -6.476202|    0.824047|    0.012218|
|         148|   -4.740651|   -6.479954|    0.824042|    0.012219|
|         149|   -4.744633|   -6.483457|    0.824038|    0.012218|
|         150|   -4.749464|   -6.486710|    0.824033|    0.012218|
|         151|   -4.755149|   -6.489714|    0.824028|    0.012218|
|         152|   -4.761547|   -6.492475|    0.824023|    0.012218|
|         153|   -4.768423|   -6.495001|    0.824017|    0.012218|
|         154|   -4.775511|   -6.497302|    0.824011|    0.012218|
|         155|   -4.782574|   -6.499393|    0.824004|    0.012217|
|         156|   -4.789441|   -6.501291|    0.823998|    0.012217|
|         157|   -4.796030|   -6.503014|    0.823991|    0.012217|
|         158|   -4.802339|   -6.504586|    0.823984|    0.012216|
|         159|   -4.808423|   -6.506030|    0.823976|    0.012215|
|         160|   -4.814363|   -6.507369|    0.823969|    0.012215|
|         161|   -4.820240|   -6.508628|    0.823961|    0.012214|
|         162|   -4.826110|   -6.509833|    0.823953|    0.012213|
|         163|   -4.831996|   -6.511007|    0.823945|    0.012213|
|         164|   -4.837893|   -6.512177|    0.823937|    0.012212|
|         165|   -4.843774|   -6.513364|    0.823929|    0.012211|
|         166|   -4.849598|   -6.514591|    0.823921|    0.012210|
|         167|   -4.855330|   -6.515878|    0.823913|    0.012210|
|         168|   -4.860939|   -6.517243|    0.823905|    0.012209|
|         169|   -4.866406|   -6.518703|    0.823897|    0.012208|
|         170|   -4.871725|   -6.520275|    0.823889|    0.012207|
|         171|   -4.876900|   -6.521971|    0.823881|    0.012206|
|         172|   -4.881937|   -6.523805|    0.823874|    0.012206|
|         173|   -4.886849|   -6.525786|    0.823867|    0.012205|
|         174|   -4.891644|   -6.527925|    0.823860|    0.012204|
|         175|   -4.896325|   -6.530228|    0.823854|    0.012203|
|         176|   -4.900895|   -6.532701|    0.823848|    0.012203|
|         177|   -4.905374|   -6.535350|    0.823842|    0.012202|
|         178|   -4.909770|   -6.538178|    0.823837|    0.012202|
|         179|   -4.914093|   -6.541189|    0.823832|    0.012201|
|         180|   -4.918355|   -6.544386|    0.823828|    0.012201|
|         181|   -4.922571|   -6.547769|    0.823824|    0.012200|
|         182|   -4.926754|   -6.551341|    0.823821|    0.012200|
|         183|   -4.930921|   -6.555103|    0.823818|    0.012200|
|         184|   -4.935084|   -6.559057|    0.823816|    0.012199|
|         185|   -4.939257|   -6.563205|    0.823815|    0.012199|
|         186|   -4.943447|   -6.567547|    0.823813|    0.012199|
|         187|   -4.947661|   -6.572088|    0.823813|    0.012199|
|         188|   -4.951903|   -6.576830|    0.823813|    0.012199|
|         189|   -4.956172|   -6.581776|    0.823813|    0.012199|
|         190|   -4.960459|   -6.586927|    0.823814|    0.012198|
|         191|   -4.964752|   -6.592286|    0.823816|    0.012198|
|         192|   -4.969032|   -6.597856|    0.823818|    0.012198|
|         193|   -4.973278|   -6.603641|    0.823820|    0.012198|
|         194|   -4.977460|   -6.609644|    0.823823|    0.012198|
|         195|   -4.981549|   -6.615868|    0.823826|    0.012198|
|         196|   -4.985512|   -6.622316|    0.823830|    0.012199|
|         197|   -4.989315|   -6.628991|    0.823834|    0.012199|
|         198|   -4.992925|   -6.635896|    0.823838|    0.012199|
|         199|   -4.996315|   -6.643032|    0.823843|    0.012199|
|         200|   -4.999461|   -6.650399|    0.823847|    0.012199|
|         201|   -5.002347|   -6.657996|    0.823852|    0.012210|
+-----------------------------------------------------------------------+
|Fixed CL Mode                           |Value                         |
+-----------------------------------------------------------------------+
|Current CL                              |0.823852                      |
|Target CL                               |0.824                         |
|Previous AOA                            |2.79601                       |
|Changed AoA by                          |0.000763213                   |
+-----------------------------------------------------------------------+
+----------------------------------------------------------------+
|  Inner_Iter|    rms[Rho]|     rms[nu]|          CL|          CD|
+----------------------------------------------------------------+
|         202|   -3.310629|   -6.658922|    0.823858|    0.012210|
|         203|   -3.694867|   -6.670302|    0.823863|    0.012210|
|         204|   -3.939344|   -6.679490|    0.823869|    0.012211|
|         205|   -4.019520|   -6.688450|    0.823874|    0.012211|
|         206|   -4.074398|   -6.697491|    0.823880|    0.012211|
|         207|   -4.145050|   -6.706676|    0.823886|    0.012211|
|         208|   -4.231824|   -6.716015|    0.823892|    0.012212|
|         209|   -4.321384|   -6.725503|    0.823898|    0.012212|
|         210|   -4.396450|   -6.735127|    0.823904|    0.012212|
|         211|   -4.448708|   -6.744868|    0.823910|    0.012212|
|         212|   -4.480856|   -6.754711|    0.823916|    0.012213|
|         213|   -4.497959|   -6.764649|    0.823922|    0.012213|
|         214|   -4.504624|   -6.774682|    0.823928|    0.012213|
|         215|   -4.506682|   -6.784812|    0.823933|    0.012214|
|         216|   -4.510176|   -6.795026|    0.823939|    0.012214|
|         217|   -4.518956|   -6.805316|    0.823944|    0.012215|
|         218|   -4.533717|   -6.815674|    0.823949|    0.012215|
|         219|   -4.552579|   -6.826098|    0.823954|    0.012215|
|         220|   -4.572493|   -6.836591|    0.823958|    0.012216|
|         221|   -4.590951|   -6.847160|    0.823962|    0.012216|
|         222|   -4.607147|   -6.857809|    0.823966|    0.012217|
|         223|   -4.621878|   -6.868548|    0.823970|    0.012217|
|         224|   -4.636472|   -6.879375|    0.823973|    0.012217|
|         225|   -4.651806|   -6.890295|    0.823976|    0.012218|
|         226|   -4.667971|   -6.901315|    0.823979|    0.012218|
|         227|   -4.684478|   -6.912440|    0.823981|    0.012219|
|         228|   -4.700609|   -6.923671|    0.823983|    0.012219|
|         229|   -4.715675|   -6.935015|    0.823985|    0.012219|
|         230|   -4.729146|   -6.946474|    0.823986|    0.012220|
|         231|   -4.740741|   -6.958050|    0.823987|    0.012220|
|         232|   -4.750521|   -6.969762|    0.823988|    0.012220|
|         233|   -4.758934|   -6.981622|    0.823989|    0.012221|
|         234|   -4.766738|   -6.993626|    0.823990|    0.012221|
|         235|   -4.774817|   -7.005769|    0.823990|    0.012221|
|         236|   -4.783966|   -7.018054|    0.823991|    0.012222|
|         237|   -4.794733|   -7.030464|    0.823991|    0.012222|
|         238|   -4.807333|   -7.042973|    0.823991|    0.012223|
|         239|   -4.821625|   -7.055550|    0.823991|    0.012223|
|         240|   -4.837126|   -7.068152|    0.823992|    0.012223|
|         241|   -4.853064|   -7.080731|    0.823992|    0.012224|
|         242|   -4.868529|   -7.093230|    0.823993|    0.012224|
|         243|   -4.882669|   -7.105599|    0.823993|    0.012224|
|         244|   -4.894947|   -7.117788|    0.823994|    0.012225|
|         245|   -4.905304|   -7.129744|    0.823995|    0.012225|
|         246|   -4.914175|   -7.141409|    0.823997|    0.012226|
|         247|   -4.922329|   -7.152732|    0.823998|    0.012226|
|         248|   -4.930621|   -7.163663|    0.824000|    0.012227|
|         249|   -4.939772|   -7.174167|    0.824003|    0.012227|
|         250|   -4.950230|   -7.184226|    0.824005|    0.012228|
|         251|   -4.962124|   -7.193842|    0.824008|    0.012229|
|         252|   -4.975286|   -7.203008|    0.824012|    0.012229|
|         253|   -4.989325|   -7.211740|    0.824015|    0.012230|
|         254|   -5.003725|   -7.220062|    0.824020|    0.012231|
|         255|   -5.017959|   -7.228010|    0.824024|    0.012231|
|         256|   -5.031603|   -7.235635|    0.824029|    0.012232|
|         257|   -5.044406|   -7.243054|    0.824034|    0.012233|
|         258|   -5.056312|   -7.250273|    0.824040|    0.012233|
|         259|   -5.067441|   -7.257439|    0.824046|    0.012234|
|         260|   -5.078017|   -7.264688|    0.824053|    0.012235|
|         261|   -5.088298|   -7.272068|    0.824059|    0.012236|
|         262|   -5.098505|   -7.279579|    0.824066|    0.012237|
|         263|   -5.108796|   -7.287191|    0.824073|    0.012237|
|         264|   -5.119249|   -7.294891|    0.824081|    0.012238|
|         265|   -5.129870|   -7.302665|    0.824088|    0.012239|
|         266|   -5.140620|   -7.310487|    0.824096|    0.012240|
|         267|   -5.151441|   -7.318299|    0.824104|    0.012240|
|         268|   -5.162273|   -7.326019|    0.824112|    0.012241|
|         269|   -5.173066|   -7.333545|    0.824120|    0.012242|
|         270|   -5.183788|   -7.340759|    0.824127|    0.012242|
|         271|   -5.194413|   -7.347532|    0.824135|    0.012243|
|         272|   -5.204919|   -7.353734|    0.824142|    0.012243|
|         273|   -5.215279|   -7.359240|    0.824150|    0.012244|
|         274|   -5.225455|   -7.363928|    0.824157|    0.012245|
|         275|   -5.235396|   -7.367702|    0.824163|    0.012245|
|         276|   -5.245042|   -7.370485|    0.824170|    0.012245|
|         277|   -5.254327|   -7.372230|    0.824176|    0.012246|
|         278|   -5.263184|   -7.372928|    0.824181|    0.012246|
|         279|   -5.271551|   -7.372605|    0.824186|    0.012246|
|         280|   -5.279377|   -7.371317|    0.824191|    0.012246|
|         281|   -5.286629|   -7.369159|    0.824196|    0.012247|
|         282|   -5.293281|   -7.366264|    0.824199|    0.012247|
|         283|   -5.299324|   -7.362790|    0.824203|    0.012247|
|         284|   -5.304766|   -7.358906|    0.824206|    0.012247|
|         285|   -5.309626|   -7.354780|    0.824208|    0.012247|
|         286|   -5.313935|   -7.350571|    0.824210|    0.012247|
|         287|   -5.317731|   -7.346410|    0.824212|    0.012246|
|         288|   -5.321062|   -7.342419|    0.824213|    0.012246|
|         289|   -5.323981|   -7.338698|    0.824214|    0.012246|
|         290|   -5.326547|   -7.335319|    0.824215|    0.012246|
|         291|   -5.328819|   -7.332332|    0.824215|    0.012245|
|         292|   -5.330859|   -7.329764|    0.824215|    0.012245|
|         293|   -5.332730|   -7.327623|    0.824214|    0.012245|
|         294|   -5.334488|   -7.325900|    0.824214|    0.012244|
|         295|   -5.336187|   -7.324569|    0.824213|    0.012244|
|         296|   -5.337874|   -7.323592|    0.824212|    0.012243|
|         297|   -5.339592|   -7.322912|    0.824210|    0.012243|
|         298|   -5.341375|   -7.322464|    0.824209|    0.012242|
|         299|   -5.343252|   -7.322168|    0.824207|    0.012242|
|         300|   -5.345243|   -7.321939|    0.824206|    0.012241|
|         301|   -5.347363|   -7.321684|    0.824204|    0.012226|
+-----------------------------------------------------------------------+
|Fixed CL Mode                           |Value                         |
+-----------------------------------------------------------------------+
|Current CL                              |0.824204                      |
|Target CL                               |0.824                         |
|Previous AOA                            |2.79678                       |
|Changed AoA by                          |-0.0010292                    |
+-----------------------------------------------------------------------+
+----------------------------------------------------------------+
|  Inner_Iter|    rms[Rho]|     rms[nu]|          CL|          CD|
+----------------------------------------------------------------+
|         302|   -3.180899|   -7.151060|    0.824203|    0.012225|
|         303|   -3.565717|   -7.221434|    0.824201|    0.012225|
|         304|   -3.810976|   -7.245753|    0.824199|    0.012224|
|         305|   -3.890676|   -7.259061|    0.824198|    0.012224|
|         306|   -3.944867|   -7.268139|    0.824196|    0.012223|
|         307|   -4.015213|   -7.274589|    0.824195|    0.012223|
|         308|   -4.102422|   -7.278862|    0.824194|    0.012222|
|         309|   -4.193699|   -7.281212|    0.824192|    0.012222|
|         310|   -4.272085|   -7.281813|    0.824191|    0.012221|
|         311|   -4.328701|   -7.280760|    0.824190|    0.012221|
|         312|   -4.365152|   -7.278212|    0.824189|    0.012220|
|         313|   -4.385609|   -7.274532|    0.824189|    0.012220|
|         314|   -4.394301|   -7.270174|    0.824188|    0.012219|
|         315|   -4.397343|   -7.265480|    0.824188|    0.012219|
|         316|   -4.401425|   -7.260621|    0.824187|    0.012219|
|         317|   -4.410935|   -7.255664|    0.824187|    0.012218|
|         318|   -4.426814|   -7.250671|    0.824188|    0.012218|
|         319|   -4.447148|   -7.245743|    0.824188|    0.012218|
|         320|   -4.468664|   -7.240989|    0.824189|    0.012217|
|         321|   -4.488585|   -7.236500|    0.824190|    0.012217|
|         322|   -4.505979|   -7.232311|    0.824191|    0.012217|
|         323|   -4.521702|   -7.228409|    0.824192|    0.012217|
|         324|   -4.537221|   -7.224765|    0.824194|    0.012217|
|         325|   -4.553494|   -7.221351|    0.824195|    0.012216|
|         326|   -4.570581|   -7.218135|    0.824197|    0.012216|
|         327|   -4.587875|   -7.215103|    0.824199|    0.012216|
|         328|   -4.604513|   -7.212253|    0.824202|    0.012216|
|         329|   -4.619683|   -7.209579|    0.824204|    0.012216|
|         330|   -4.632788|   -7.207073|    0.824207|    0.012216|
|         331|   -4.643557|   -7.204736|    0.824210|    0.012216|
|         332|   -4.652142|   -7.202567|    0.824212|    0.012216|
|         333|   -4.659141|   -7.200559|    0.824215|    0.012217|
|         334|   -4.665486|   -7.198704|    0.824218|    0.012217|
|         335|   -4.672209|   -7.196988|    0.824222|    0.012217|
|         336|   -4.680203|   -7.195394|    0.824225|    0.012217|
|         337|   -4.690056|   -7.193904|    0.824228|    0.012217|
|         338|   -4.701977|   -7.192494|    0.824231|    0.012217|
|         339|   -4.715781|   -7.191135|    0.824234|    0.012217|
|         340|   -4.730911|   -7.189809|    0.824237|    0.012218|
|         341|   -4.746509|   -7.188485|    0.824240|    0.012218|
|         342|   -4.761570|   -7.187139|    0.824243|    0.012218|
|         343|   -4.775176|   -7.185746|    0.824245|    0.012218|
|         344|   -4.786765|   -7.184290|    0.824248|    0.012218|
|         345|   -4.796314|   -7.182756|    0.824250|    0.012219|
|         346|   -4.804337|   -7.181135|    0.824252|    0.012219|
|         347|   -4.811695|   -7.179420|    0.824253|    0.012219|
|         348|   -4.819324|   -7.177607|    0.824255|    0.012219|
|         349|   -4.828001|   -7.175697|    0.824255|    0.012219|
|         350|   -4.838198|   -7.173707|    0.824256|    0.012219|
|         351|   -4.850044|   -7.171639|    0.824256|    0.012219|
|         352|   -4.863353|   -7.169509|    0.824256|    0.012220|
|         353|   -4.877704|   -7.167355|    0.824255|    0.012220|
|         354|   -4.892542|   -7.165194|    0.824253|    0.012220|
|         355|   -4.907308|   -7.163061|    0.824252|    0.012220|
|         356|   -4.921545|   -7.160990|    0.824249|    0.012220|
|         357|   -4.934987|   -7.159024|    0.824247|    0.012220|
|         358|   -4.947581|   -7.157206|    0.824243|    0.012219|
|         359|   -4.959465|   -7.155582|    0.824240|    0.012219|
|         360|   -4.970894|   -7.154193|    0.824236|    0.012219|
|         361|   -4.982158|   -7.153082|    0.824231|    0.012219|
|         362|   -4.993515|   -7.152288|    0.824226|    0.012219|
|         363|   -5.005146|   -7.151841|    0.824221|    0.012219|
|         364|   -5.017148|   -7.151763|    0.824215|    0.012219|
|         365|   -5.029545|   -7.152067|    0.824209|    0.012218|
|         366|   -5.042309|   -7.152759|    0.824203|    0.012218|
|         367|   -5.055389|   -7.153835|    0.824196|    0.012218|
|         368|   -5.068734|   -7.155278|    0.824190|    0.012218|
|         369|   -5.082304|   -7.157063|    0.824183|    0.012217|
|         370|   -5.096075|   -7.159152|    0.824177|    0.012217|
|         371|   -5.110034|   -7.161496|    0.824171|    0.012217|
|         372|   -5.124168|   -7.164033|    0.824164|    0.012217|
|         373|   -5.138455|   -7.166690|    0.824158|    0.012216|
|         374|   -5.152854|   -7.169388|    0.824153|    0.012216|
|         375|   -5.167302|   -7.172044|    0.824147|    0.012216|
|         376|   -5.181708|   -7.174571|    0.824142|    0.012216|
|         377|   -5.195965|   -7.176884|    0.824138|    0.012216|
|         378|   -5.209948|   -7.178907|    0.824134|    0.012215|
|         379|   -5.223524|   -7.180574|    0.824130|    0.012215|
|         380|   -5.236559|   -7.181840|    0.824127|    0.012215|
|         381|   -5.248930|   -7.182676|    0.824125|    0.012215|
|         382|   -5.260522|   -7.183078|    0.824123|    0.012215|
|         383|   -5.271244|   -7.183063|    0.824122|    0.012215|
|         384|   -5.281026|   -7.182677|    0.824122|    0.012215|
|         385|   -5.289830|   -7.181983|    0.824122|    0.012215|
|         386|   -5.297643|   -7.181052|    0.824123|    0.012216|
|         387|   -5.304488|   -7.179972|    0.824124|    0.012216|
|         388|   -5.310415|   -7.178836|    0.824126|    0.012216|
|         389|   -5.315501|   -7.177743|    0.824128|    0.012216|
|         390|   -5.319844|   -7.176785|    0.824132|    0.012216|
|         391|   -5.323556|   -7.176053|    0.824135|    0.012216|
|         392|   -5.326760|   -7.175623|    0.824139|    0.012217|
|         393|   -5.329576|   -7.175562|    0.824144|    0.012217|
|         394|   -5.332123|   -7.175924|    0.824149|    0.012217|
|         395|   -5.334509|   -7.176745|    0.824154|    0.012217|
|         396|   -5.336828|   -7.178048|    0.824160|    0.012218|
|         397|   -5.339162|   -7.179841|    0.824165|    0.012218|
|         398|   -5.341575|   -7.182117|    0.824172|    0.012218|
|         399|   -5.344117|   -7.184854|    0.824178|    0.012218|
|         400|   -5.346820|   -7.188017|    0.824184|    0.012218|
|         401|   -5.349704|   -7.191558|    0.824191|    0.012205|
+-----------------------------------------------------------------------+
|Fixed CL Mode                           |Value                         |
+-----------------------------------------------------------------------+
|Current CL                              |0.824191                      |
|Target CL                               |0.824                         |
|Previous AOA                            |2.79575                       |
|Changed AoA by                          |-0.000921887                  |
+-----------------------------------------------------------------------+
+----------------------------------------------------------------+
|  Inner_Iter|    rms[Rho]|     rms[nu]|          CL|          CD|
+----------------------------------------------------------------+
|         402|   -3.228645|   -7.100980|    0.824198|    0.012206|
|         403|   -3.612470|   -7.146931|    0.824205|    0.012206|
|         404|   -3.854915|   -7.164807|    0.824212|    0.012206|
|         405|   -3.933247|   -7.176740|    0.824218|    0.012206|
|         406|   -3.987062|   -7.186536|    0.824225|    0.012206|
|         407|   -4.056973|   -7.195045|    0.824232|    0.012207|
|         408|   -4.143514|   -7.202489|    0.824239|    0.012207|
|         409|   -4.234272|   -7.208981|    0.824245|    0.012207|
|         410|   -4.313088|   -7.214577|    0.824252|    0.012207|
|         411|   -4.371568|   -7.219263|    0.824258|    0.012207|
|         412|   -4.410938|   -7.223050|    0.824264|    0.012207|
|         413|   -4.434535|   -7.226070|    0.824270|    0.012207|
|         414|   -4.445815|   -7.228530|    0.824276|    0.012207|
|         415|   -4.450562|   -7.230594|    0.824282|    0.012207|
|         416|   -4.455627|   -7.232334|    0.824287|    0.012207|
|         417|   -4.465751|   -7.233765|    0.824292|    0.012207|
|         418|   -4.482185|   -7.234903|    0.824297|    0.012207|
|         419|   -4.503241|   -7.235802|    0.824301|    0.012207|
|         420|   -4.525798|   -7.236535|    0.824306|    0.012207|
|         421|   -4.547174|   -7.237162|    0.824310|    0.012207|
|         422|   -4.566471|   -7.237711|    0.824313|    0.012206|
|         423|   -4.584526|   -7.238178|    0.824317|    0.012206|
|         424|   -4.602740|   -7.238547|    0.824320|    0.012206|
|         425|   -4.621932|   -7.238805|    0.824323|    0.012206|
|         426|   -4.641931|   -7.238944|    0.824325|    0.012206|
|         427|   -4.661816|   -7.238981|    0.824327|    0.012205|
|         428|   -4.680391|   -7.238943|    0.824329|    0.012205|
|         429|   -4.696585|   -7.238857|    0.824331|    0.012205|
|         430|   -4.709702|   -7.238758|    0.824332|    0.012205|
|         431|   -4.719562|   -7.238680|    0.824333|    0.012204|
|         432|   -4.726570|   -7.238646|    0.824333|    0.012204|
|         433|   -4.731653|   -7.238669|    0.824334|    0.012204|
|         434|   -4.736043|   -7.238753|    0.824334|    0.012204|
|         435|   -4.740961|   -7.238895|    0.824333|    0.012203|
|         436|   -4.747367|   -7.239081|    0.824333|    0.012203|
|         437|   -4.755803|   -7.239295|    0.824332|    0.012203|
|         438|   -4.766360|   -7.239515|    0.824331|    0.012203|
|         439|   -4.778689|   -7.239729|    0.824330|    0.012202|
|         440|   -4.792054|   -7.239912|    0.824328|    0.012202|
|         441|   -4.805447|   -7.240047|    0.824326|    0.012202|
|         442|   -4.817775|   -7.240116|    0.824324|    0.012202|
|         443|   -4.828138|   -7.240110|    0.824322|    0.012201|
|         444|   -4.836099|   -7.240025|    0.824319|    0.012201|
|         445|   -4.841828|   -7.239858|    0.824317|    0.012201|
|         446|   -4.846024|   -7.239614|    0.824314|    0.012201|
|         447|   -4.849666|   -7.239290|    0.824311|    0.012201|
|         448|   -4.853724|   -7.238887|    0.824307|    0.012200|
|         449|   -4.858936|   -7.238407|    0.824304|    0.012200|
|         450|   -4.865709|   -7.237862|    0.824300|    0.012200|
|         451|   -4.874109|   -7.237239|    0.824296|    0.012200|
|         452|   -4.883915|   -7.236539|    0.824292|    0.012200|
|         453|   -4.894715|   -7.235772|    0.824288|    0.012200|
|         454|   -4.906016|   -7.234938|    0.824283|    0.012200|
|         455|   -4.917353|   -7.234034|    0.824278|    0.012200|
|         456|   -4.928384|   -7.233061|    0.824274|    0.012199|
|         457|   -4.938945|   -7.232031|    0.824268|    0.012199|
|         458|   -4.949053|   -7.230937|    0.824263|    0.012199|
|         459|   -4.958871|   -7.229790|    0.824257|    0.012199|
|         460|   -4.968639|   -7.228596|    0.824252|    0.012199|
|         461|   -4.978610|   -7.227367|    0.824246|    0.012199|
|         462|   -4.988998|   -7.226118|    0.824240|    0.012199|
|         463|   -4.999951|   -7.224865|    0.824234|    0.012199|
|         464|   -5.011544|   -7.223627|    0.824227|    0.012199|
|         465|   -5.023794|   -7.222425|    0.824221|    0.012199|
|         466|   -5.036678|   -7.221281|    0.824215|    0.012199|
|         467|   -5.050155|   -7.220223|    0.824208|    0.012199|
|         468|   -5.064187|   -7.219279|    0.824202|    0.012199|
|         469|   -5.078745|   -7.218476|    0.824195|    0.012199|
|         470|   -5.093814|   -7.217841|    0.824189|    0.012199|
|         471|   -5.109387|   -7.217396|    0.824182|    0.012199|
|         472|   -5.125458|   -7.217156|    0.824176|    0.012199|
|         473|   -5.142014|   -7.217137|    0.824170|    0.012199|
|         474|   -5.159022|   -7.217338|    0.824164|    0.012199|
|         475|   -5.176427|   -7.217749|    0.824159|    0.012199|
|         476|   -5.194146|   -7.218353|    0.824154|    0.012199|
|         477|   -5.212069|   -7.219122|    0.824149|    0.012199|
|         478|   -5.230059|   -7.220019|    0.824144|    0.012199|
|         479|   -5.247956|   -7.221002|    0.824140|    0.012199|
|         480|   -5.265580|   -7.222018|    0.824136|    0.012199|
|         481|   -5.282739|   -7.223014|    0.824133|    0.012199|
|         482|   -5.299235|   -7.223933|    0.824130|    0.012199|
|         483|   -5.314871|   -7.224720|    0.824128|    0.012200|
|         484|   -5.329461|   -7.225325|    0.824126|    0.012200|
|         485|   -5.342843|   -7.225705|    0.824125|    0.012200|
|         486|   -5.354888|   -7.225831|    0.824124|    0.012200|
|         487|   -5.365511|   -7.225682|    0.824123|    0.012200|
|         488|   -5.374676|   -7.225248|    0.824123|    0.012200|
|         489|   -5.382400|   -7.224536|    0.824124|    0.012200|
|         490|   -5.388751|   -7.223569|    0.824124|    0.012200|
|         491|   -5.393838|   -7.222384|    0.824126|    0.012200|
|         492|   -5.397803|   -7.221031|    0.824128|    0.012201|
|         493|   -5.400810|   -7.219568|    0.824130|    0.012201|
|         494|   -5.403028|   -7.218058|    0.824132|    0.012201|
|         495|   -5.404629|   -7.216570|    0.824135|    0.012201|
|         496|   -5.405772|   -7.215169|    0.824138|    0.012201|
|         497|   -5.406601|   -7.213917|    0.824142|    0.012201|
|         498|   -5.407242|   -7.212872|    0.824145|    0.012202|
|         499|   -5.407804|   -7.212082|    0.824149|    0.012202|
|         500|   -5.408373|   -7.211586|    0.824154|    0.012202|
|         501|   -5.409022|   -7.211410|    0.824158|    0.012191|
+-----------------------------------------------------------------------+
|Fixed CL Mode                           |Value                         |
+-----------------------------------------------------------------------+
|Current CL                              |0.824158                      |
|Target CL                               |0.824                         |
|Previous AOA                            |2.79483                       |
|Changed AoA by                          |-0.000768285                  |
+-----------------------------------------------------------------------+
+----------------------------------------------------------------+
|  Inner_Iter|    rms[Rho]|     rms[nu]|          CL|          CD|
+----------------------------------------------------------------+
|         502|   -3.307797|   -7.137000|    0.824163|    0.012191|
|         503|   -3.691209|   -7.171824|    0.824168|    0.012191|
|         504|   -3.932172|   -7.183646|    0.824172|    0.012192|
|         505|   -4.009544|   -7.190886|    0.824177|    0.012192|
|         506|   -4.062996|   -7.196632|    0.824182|    0.012192|
|         507|   -4.132666|   -7.201611|    0.824187|    0.012192|
|         508|   -4.219046|   -7.206036|    0.824192|    0.012192|
|         509|   -4.309975|   -7.210018|    0.824197|    0.012193|
|         510|   -4.389651|   -7.213600|    0.824202|    0.012193|
|         511|   -4.449682|   -7.216760|    0.824207|    0.012193|
|         512|   -4.490874|   -7.219475|    0.824212|    0.012193|
|         513|   -4.516075|   -7.221788|    0.824217|    0.012194|
|         514|   -4.528412|   -7.223782|    0.824221|    0.012194|
|         515|   -4.533636|   -7.225514|    0.824226|    0.012194|
|         516|   -4.538783|   -7.226982|    0.824230|    0.012194|
|         517|   -4.548800|   -7.228152|    0.824234|    0.012195|
|         518|   -4.565064|   -7.229006|    0.824238|    0.012195|
|         519|   -4.585944|   -7.229562|    0.824241|    0.012195|
|         520|   -4.608346|   -7.229862|    0.824244|    0.012195|
|         521|   -4.629615|   -7.229953|    0.824247|    0.012196|
|         522|   -4.648874|   -7.229865|    0.824250|    0.012196|
|         523|   -4.666973|   -7.229614|    0.824253|    0.012196|
|         524|   -4.685302|   -7.229211|    0.824255|    0.012196|
|         525|   -4.704641|   -7.228671|    0.824257|    0.012196|
|         526|   -4.724769|   -7.228014|    0.824259|    0.012197|
|         527|   -4.744716|   -7.227276|    0.824260|    0.012197|
|         528|   -4.763251|   -7.226499|    0.824261|    0.012197|
|         529|   -4.779300|   -7.225725|    0.824262|    0.012197|
|         530|   -4.792197|   -7.224994|    0.824262|    0.012197|
|         531|   -4.801815|   -7.224346|    0.824263|    0.012197|
|         532|   -4.808609|   -7.223810|    0.824263|    0.012198|
|         533|   -4.813546|   -7.223404|    0.824263|    0.012198|
|         534|   -4.817870|   -7.223135|    0.824262|    0.012198|
|         535|   -4.822800|   -7.223001|    0.824261|    0.012198|
|         536|   -4.829274|   -7.222990|    0.824260|    0.012198|
|         537|   -4.837815|   -7.223085|    0.824259|    0.012198|
|         538|   -4.848485|   -7.223263|    0.824258|    0.012198|
|         539|   -4.860910|   -7.223498|    0.824256|    0.012198|
|         540|   -4.874328|   -7.223765|    0.824255|    0.012198|
|         541|   -4.887705|   -7.224041|    0.824253|    0.012198|
|         542|   -4.899929|   -7.224301|    0.824251|    0.012198|
|         543|   -4.910089|   -7.224525|    0.824248|    0.012198|
|         544|   -4.917757|   -7.224699|    0.824246|    0.012198|
|         545|   -4.923121|   -7.224814|    0.824244|    0.012198|
|         546|   -4.926906|   -7.224862|    0.824241|    0.012198|
|         547|   -4.930112|   -7.224842|    0.824238|    0.012198|
|         548|   -4.933720|   -7.224753|    0.824235|    0.012198|
|         549|   -4.938475|   -7.224592|    0.824232|    0.012198|
|         550|   -4.944777|   -7.224361|    0.824229|    0.012198|
|         551|   -4.952686|   -7.224062|    0.824226|    0.012198|
|         552|   -4.961974|   -7.223698|    0.824222|    0.012198|
|         553|   -4.972226|   -7.223279|    0.824219|    0.012198|
|         554|   -4.982950|   -7.222811|    0.824215|    0.012198|
|         555|   -4.993688|   -7.222295|    0.824211|    0.012198|
|         556|   -5.004109|   -7.221733|    0.824207|    0.012198|
|         557|   -5.014059|   -7.221132|    0.824203|    0.012198|
|         558|   -5.023565|   -7.220498|    0.824199|    0.012198|
|         559|   -5.032795|   -7.219838|    0.824194|    0.012198|
|         560|   -5.041992|   -7.219165|    0.824189|    0.012197|
|         561|   -5.051409|   -7.218490|    0.824185|    0.012197|
|         562|   -5.061257|   -7.217831|    0.824180|    0.012197|
|         563|   -5.071685|   -7.217203|    0.824174|    0.012197|
|         564|   -5.082768|   -7.216624|    0.824169|    0.012197|
|         565|   -5.094527|   -7.216112|    0.824164|    0.012197|
|         566|   -5.106944|   -7.215690|    0.824159|    0.012197|
|         567|   -5.119987|   -7.215379|    0.824153|    0.012197|
|         568|   -5.133627|   -7.215203|    0.824148|    0.012197|
|         569|   -5.147843|   -7.215189|    0.824142|    0.012197|
|         570|   -5.162630|   -7.215358|    0.824137|    0.012197|
|         571|   -5.177991|   -7.215727|    0.824132|    0.012197|
|         572|   -5.193930|   -7.216307|    0.824127|    0.012197|
|         573|   -5.210443|   -7.217102|    0.824122|    0.012197|
|         574|   -5.227509|   -7.218110|    0.824117|    0.012197|
|         575|   -5.245083|   -7.219319|    0.824112|    0.012197|
|         576|   -5.263095|   -7.220707|    0.824108|    0.012197|
|         577|   -5.281445|   -7.222244|    0.824104|    0.012197|
|         578|   -5.300006|   -7.223892|    0.824100|    0.012196|
|         579|   -5.318622|   -7.225603|    0.824096|    0.012196|
|         580|   -5.337116|   -7.227328|    0.824093|    0.012196|
|         581|   -5.355289|   -7.229011|    0.824091|    0.012196|
|         582|   -5.372927|   -7.230597|    0.824088|    0.012196|
|         583|   -5.389808|   -7.232033|    0.824086|    0.012196|
|         584|   -5.405712|   -7.233269|    0.824085|    0.012196|
|         585|   -5.420432|   -7.234267|    0.824084|    0.012196|
|         586|   -5.433786|   -7.234996|    0.824083|    0.012197|
|         587|   -5.445637|   -7.235439|    0.824083|    0.012197|
|         588|   -5.455895|   -7.235594|    0.824083|    0.012197|
|         589|   -5.464533|   -7.235477|    0.824084|    0.012197|
|         590|   -5.471584|   -7.235108|    0.824085|    0.012197|
|         591|   -5.477138|   -7.234525|    0.824086|    0.012197|
|         592|   -5.481332|   -7.233774|    0.824088|    0.012197|
|         593|   -5.484336|   -7.232912|    0.824090|    0.012197|
|         594|   -5.486339|   -7.232001|    0.824093|    0.012197|
|         595|   -5.487536|   -7.231104|    0.824096|    0.012197|
|         596|   -5.488118|   -7.230284|    0.824099|    0.012197|
|         597|   -5.488262|   -7.229600|    0.824103|    0.012197|
|         598|   -5.488123|   -7.229103|    0.824106|    0.012197|
|         599|   -5.487841|   -7.228838|    0.824110|    0.012197|
|         600|   -5.487531|   -7.228839|    0.824114|    0.012197|
|         601|   -5.487288|   -7.229129|    0.824119|    0.012189|
+-----------------------------------------------------------------------+
|Fixed CL Mode                           |Value                         |
+-----------------------------------------------------------------------+
|Current CL                              |0.824119                      |
|Target CL                               |0.824                         |
|Previous AOA                            |2.79406                       |
|Changed AoA by                          |-0.000571637                  |
+-----------------------------------------------------------------------+
+----------------------------------------------------------------+
|  Inner_Iter|    rms[Rho]|     rms[nu]|          CL|          CD|
+----------------------------------------------------------------+
|         602|   -3.436214|   -7.181683|    0.824123|    0.012189|
|         603|   -3.819608|   -7.205268|    0.824128|    0.012189|
|         604|   -4.060273|   -7.213462|    0.824133|    0.012189|
|         605|   -4.137303|   -7.218771|    0.824137|    0.012189|
|         606|   -4.190554|   -7.223198|    0.824142|    0.012189|
|         607|   -4.260071|   -7.227195|    0.824147|    0.012190|
|         608|   -4.346309|   -7.230882|    0.824152|    0.012190|
|         609|   -4.437161|   -7.234314|    0.824157|    0.012190|
|         610|   -4.516935|   -7.237503|    0.824161|    0.012190|
|         611|   -4.577284|   -7.240418|    0.824166|    0.012190|
|         612|   -4.618928|   -7.243033|    0.824170|    0.012190|
|         613|   -4.644573|   -7.245363|    0.824175|    0.012190|
|         614|   -4.657231|   -7.247454|    0.824179|    0.012190|
|         615|   -4.662620|   -7.249337|    0.824183|    0.012190|
|         616|   -4.667816|   -7.251011|    0.824187|    0.012190|
|         617|   -4.677826|   -7.252460|    0.824191|    0.012191|
|         618|   -4.694073|   -7.253682|    0.824194|    0.012191|
|         619|   -4.714956|   -7.254697|    0.824198|    0.012191|
|         620|   -4.737402|   -7.255544|    0.824201|    0.012191|
|         621|   -4.758765|   -7.256267|    0.824203|    0.012191|
|         622|   -4.778170|   -7.256901|    0.824206|    0.012191|
|         623|   -4.796458|   -7.257473|    0.824208|    0.012191|
|         624|   -4.815003|   -7.258006|    0.824210|    0.012191|
|         625|   -4.834566|   -7.258523|    0.824212|    0.012191|
|         626|   -4.854900|   -7.259050|    0.824213|    0.012191|
|         627|   -4.875003|   -7.259623|    0.824215|    0.012191|
|         628|   -4.893620|   -7.260277|    0.824216|    0.012191|
|         629|   -4.909665|   -7.261047|    0.824216|    0.012191|
|         630|   -4.922481|   -7.261965|    0.824217|    0.012191|
|         631|   -4.931966|   -7.263057|    0.824217|    0.012191|
|         632|   -4.938615|   -7.264341|    0.824217|    0.012191|
|         633|   -4.943428|   -7.265827|    0.824216|    0.012191|
|         634|   -4.947673|   -7.267514|    0.824216|    0.012191|
|         635|   -4.952578|   -7.269393|    0.824215|    0.012191|
|         636|   -4.959080|   -7.271446|    0.824214|    0.012191|
|         637|   -4.967690|   -7.273649|    0.824213|    0.012191|
|         638|   -4.978456|   -7.275971|    0.824212|    0.012191|
|         639|   -4.990984|   -7.278380|    0.824210|    0.012191|
|         640|   -5.004494|   -7.280845|    0.824209|    0.012191|
|         641|   -5.017930|   -7.283334|    0.824207|    0.012191|
|         642|   -5.030162|   -7.285818|    0.824205|    0.012191|
|         643|   -5.040271|   -7.288272|    0.824203|    0.012191|
|         644|   -5.047830|   -7.290676|    0.824201|    0.012191|
|         645|   -5.053040|   -7.293014|    0.824198|    0.012191|
|         646|   -5.056645|   -7.295274|    0.824196|    0.012191|
|         647|   -5.059665|   -7.297449|    0.824193|    0.012191|
|         648|   -5.063096|   -7.299533|    0.824191|    0.012192|
|         649|   -5.067686|   -7.301525|    0.824188|    0.012192|
|         650|   -5.073841|   -7.303423|    0.824185|    0.012192|
|         651|   -5.081617|   -7.305227|    0.824182|    0.012192|
|         652|   -5.090785|   -7.306942|    0.824179|    0.012192|
|         653|   -5.100926|   -7.308571|    0.824176|    0.012192|
|         654|   -5.111548|   -7.310118|    0.824173|    0.012192|
|         655|   -5.122191|   -7.311580|    0.824170|    0.012192|
|         656|   -5.132523|   -7.312956|    0.824166|    0.012192|
|         657|   -5.142389|   -7.314241|    0.824163|    0.012192|
|         658|   -5.151818|   -7.315437|    0.824159|    0.012192|
|         659|   -5.160975|   -7.316542|    0.824156|    0.012192|
|         660|   -5.170103|   -7.317559|    0.824152|    0.012192|
|         661|   -5.179451|   -7.318491|    0.824148|    0.012192|
|         662|   -5.189229|   -7.319345|    0.824144|    0.012193|
|         663|   -5.199580|   -7.320133|    0.824140|    0.012193|
|         664|   -5.210578|   -7.320870|    0.824135|    0.012193|
|         665|   -5.222239|   -7.321574|    0.824131|    0.012193|
|         666|   -5.234542|   -7.322268|    0.824127|    0.012193|
|         667|   -5.247452|   -7.322978|    0.824123|    0.012193|
|         668|   -5.260935|   -7.323732|    0.824118|    0.012193|
|         669|   -5.274968|   -7.324560|    0.824114|    0.012193|
|         670|   -5.289543|   -7.325493|    0.824110|    0.012194|
|         671|   -5.304659|   -7.326560|    0.824105|    0.012194|
|         672|   -5.320316|   -7.327786|    0.824101|    0.012194|
|         673|   -5.336506|   -7.329190|    0.824097|    0.012194|
|         674|   -5.353203|   -7.330784|    0.824093|    0.012194|
|         675|   -5.370358|   -7.332571|    0.824089|    0.012194|
|         676|   -5.387894|   -7.334546|    0.824086|    0.012195|
|         677|   -5.405703|   -7.336691|    0.824082|    0.012195|
|         678|   -5.423652|   -7.338984|    0.824079|    0.012195|
|         679|   -5.441577|   -7.341388|    0.824076|    0.012195|
|         680|   -5.459293|   -7.343862|    0.824074|    0.012195|
|         681|   -5.476596|   -7.346356|    0.824071|    0.012195|
|         682|   -5.493267|   -7.348817|    0.824069|    0.012196|
|         683|   -5.509082|   -7.351189|    0.824067|    0.012196|
|         684|   -5.523824|   -7.353418|    0.824066|    0.012196|
|         685|   -5.537294|   -7.355453|    0.824065|    0.012196|
|         686|   -5.549323|   -7.357250|    0.824064|    0.012196|
|         687|   -5.559790|   -7.358777|    0.824063|    0.012197|
|         688|   -5.568629|   -7.360013|    0.824063|    0.012197|
|         689|   -5.575834|   -7.360948|    0.824063|    0.012197|
|         690|   -5.581460|   -7.361592|    0.824063|    0.012197|
|         691|   -5.585616|   -7.361968|    0.824064|    0.012197|
|         692|   -5.588454|   -7.362112|    0.824065|    0.012198|
|         693|   -5.590154|   -7.362067|    0.824066|    0.012198|
|         694|   -5.590912|   -7.361889|    0.824068|    0.012198|
|         695|   -5.590925|   -7.361636|    0.824069|    0.012198|
|         696|   -5.590381|   -7.361371|    0.824071|    0.012198|
|         697|   -5.589453|   -7.361157|    0.824073|    0.012198|
|         698|   -5.588297|   -7.361052|    0.824076|    0.012199|
|         699|   -5.587046|   -7.361107|    0.824078|    0.012199|
|         700|   -5.585813|   -7.361364|    0.824081|    0.012199|
|         701|   -5.584690|   -7.361857|    0.824084|    0.012193|
+-----------------------------------------------------------------------+
|Fixed CL Mode                           |Value                         |
+-----------------------------------------------------------------------+
|Current CL                              |0.824084                      |
|Target CL                               |0.824                         |
|Previous AOA                            |2.79349                       |
|Changed AoA by                          |-0.000405757                  |
+-----------------------------------------------------------------------+
+----------------------------------------------------------------+
|  Inner_Iter|    rms[Rho]|     rms[nu]|          CL|          CD|
+----------------------------------------------------------------+
|         702|   -3.585071|   -7.317534|    0.824087|    0.012193|
|         703|   -3.968363|   -7.339841|    0.824090|    0.012194|
|         704|   -4.208547|   -7.347669|    0.824093|    0.012194|
|         705|   -4.285158|   -7.352799|    0.824097|    0.012194|
|         706|   -4.338163|   -7.357106|    0.824100|    0.012194|
|         707|   -4.407457|   -7.361005|    0.824103|    0.012194|
|         708|   -4.493456|   -7.364609|    0.824107|    0.012194|
|         709|   -4.584127|   -7.367963|    0.824110|    0.012194|
|         710|   -4.663939|   -7.371072|    0.824113|    0.012195|
|         711|   -4.724629|   -7.373901|    0.824117|    0.012195|
|         712|   -4.766829|   -7.376414|    0.824120|    0.012195|
|         713|   -4.793074|   -7.378619|    0.824123|    0.012195|
|         714|   -4.806224|   -7.380546|    0.824126|    0.012195|
|         715|   -4.811924|   -7.382218|    0.824129|    0.012195|
|         716|   -4.817272|   -7.383628|    0.824132|    0.012195|
|         717|   -4.827336|   -7.384757|    0.824135|    0.012195|
|         718|   -4.843589|   -7.385606|    0.824137|    0.012195|
|         719|   -4.864464|   -7.386189|    0.824140|    0.012196|
|         720|   -4.886909|   -7.386545|    0.824142|    0.012196|
|         721|   -4.908287|   -7.386722|    0.824144|    0.012196|
|         722|   -4.927730|   -7.386760|    0.824146|    0.012196|
|         723|   -4.946072|   -7.386693|    0.824148|    0.012196|
|         724|   -4.964669|   -7.386553|    0.824149|    0.012196|
|         725|   -4.984261|   -7.386372|    0.824151|    0.012196|
|         726|   -5.004571|   -7.386188|    0.824152|    0.012196|
|         727|   -5.024571|   -7.386045|    0.824153|    0.012196|
|         728|   -5.042989|   -7.385990|    0.824154|    0.012196|
|         729|   -5.058742|   -7.386066|    0.824154|    0.012196|
|         730|   -5.071199|   -7.386311|    0.824155|    0.012196|
|         731|   -5.080300|   -7.386757|    0.824155|    0.012196|
|         732|   -5.086581|   -7.387428|    0.824155|    0.012196|
|         733|   -5.091073|   -7.388339|    0.824155|    0.012196|
|         734|   -5.095051|   -7.389493|    0.824155|    0.012195|
|         735|   -5.099736|   -7.390885|    0.824155|    0.012195|
|         736|   -5.106047|   -7.392500|    0.824154|    0.012195|
|         737|   -5.114472|   -7.394316|    0.824154|    0.012195|
|         738|   -5.125038|   -7.396305|    0.824153|    0.012195|
|         739|   -5.137336|   -7.398435|    0.824152|    0.012195|
|         740|   -5.150576|   -7.400675|    0.824151|    0.012195|
|         741|   -5.163704|   -7.402992|    0.824151|    0.012195|
|         742|   -5.175601|   -7.405356|    0.824149|    0.012195|
|         743|   -5.185368|   -7.407736|    0.824148|    0.012195|
|         744|   -5.192595|   -7.410112|    0.824147|    0.012194|
|         745|   -5.197498|   -7.412462|    0.824146|    0.012194|
|         746|   -5.200819|   -7.414771|    0.824144|    0.012194|
|         747|   -5.203564|   -7.417027|    0.824143|    0.012194|
|         748|   -5.206710|   -7.419219|    0.824142|    0.012194|
|         749|   -5.210989|   -7.421342|    0.824140|    0.012194|
|         750|   -5.216790|   -7.423390|    0.824139|    0.012194|
|         751|   -5.224161|   -7.425362|    0.824137|    0.012194|
|         752|   -5.232873|   -7.427256|    0.824135|    0.012194|
|         753|   -5.242513|   -7.429076|    0.824133|    0.012193|
|         754|   -5.252599|   -7.430824|    0.824132|    0.012193|
|         755|   -5.262687|   -7.432498|    0.824130|    0.012193|
|         756|   -5.272459|   -7.434096|    0.824128|    0.012193|
|         757|   -5.281773|   -7.435618|    0.824126|    0.012193|
|         758|   -5.290659|   -7.437062|    0.824124|    0.012193|
|         759|   -5.299279|   -7.438433|    0.824122|    0.012193|
|         760|   -5.307869|   -7.439733|    0.824119|    0.012193|
|         761|   -5.316665|   -7.440967|    0.824117|    0.012193|
|         762|   -5.325867|   -7.442144|    0.824115|    0.012193|
|         763|   -5.335607|   -7.443274|    0.824112|    0.012193|
|         764|   -5.345952|   -7.444371|    0.824110|    0.012193|
|         765|   -5.356916|   -7.445452|    0.824107|    0.012193|
|         766|   -5.368476|   -7.446539|    0.824105|    0.012193|
|         767|   -5.380597|   -7.447654|    0.824102|    0.012193|
|         768|   -5.393249|   -7.448824|    0.824100|    0.012193|
|         769|   -5.406411|   -7.450074|    0.824097|    0.012193|
|         770|   -5.420076|   -7.451430|    0.824095|    0.012193|
|         771|   -5.434247|   -7.452918|    0.824092|    0.012193|
|         772|   -5.448928|   -7.454558|    0.824090|    0.012193|
|         773|   -5.464116|   -7.456364|    0.824088|    0.012193|
|         774|   -5.479795|   -7.458344|    0.824085|    0.012193|
|         775|   -5.495925|   -7.460499|    0.824083|    0.012193|
|         776|   -5.512447|   -7.462822|    0.824081|    0.012193|
|         777|   -5.529276|   -7.465295|    0.824079|    0.012193|
|         778|   -5.546304|   -7.467893|    0.824077|    0.012194|
|         779|   -5.563402|   -7.470581|    0.824076|    0.012194|
|         780|   -5.580421|   -7.473318|    0.824074|    0.012194|
|         781|   -5.597198|   -7.476055|    0.824073|    0.012194|
|         782|   -5.613555|   -7.478741|    0.824072|    0.012194|
|         783|   -5.629308|   -7.481322|    0.824071|    0.012194|
|         784|   -5.644272|   -7.483746|    0.824071|    0.012194|
|         785|   -5.658270|   -7.485964|    0.824070|    0.012194|
|         786|   -5.671140|   -7.487934|    0.824070|    0.012195|
|         787|   -5.682749|   -7.489626|    0.824070|    0.012195|
|         788|   -5.692998|   -7.491020|    0.824071|    0.012195|
|         789|   -5.701833|   -7.492111|    0.824071|    0.012195|
|         790|   -5.709247|   -7.492908|    0.824072|    0.012195|
|         791|   -5.715276|   -7.493434|    0.824072|    0.012196|
|         792|   -5.720001|   -7.493726|    0.824074|    0.012196|
|         793|   -5.723533|   -7.493831|    0.824075|    0.012196|
|         794|   -5.726010|   -7.493805|    0.824076|    0.012196|
|         795|   -5.727582|   -7.493710|    0.824078|    0.012196|
|         796|   -5.728405|   -7.493610|    0.824079|    0.012196|
|         797|   -5.728630|   -7.493568|    0.824081|    0.012197|
|         798|   -5.728403|   -7.493643|    0.824083|    0.012197|
|         799|   -5.727857|   -7.493890|    0.824085|    0.012197|
|         800|   -5.727110|   -7.494353|    0.824088|    0.012197|
|         801|   -5.726269|   -7.495067|    0.824090|    0.012191|
+-----------------------------------------------------------------------+
|Fixed CL Mode                           |Value                         |
+-----------------------------------------------------------------------+
|Current CL                              |0.82409                       |
|Target CL                               |0.824                         |
|Previous AOA                            |2.79308                       |
|Changed AoA by                          |-0.000437657                  |
+-----------------------------------------------------------------------+
+----------------------------------------------------------------+
|  Inner_Iter|    rms[Rho]|     rms[nu]|          CL|          CD|
+----------------------------------------------------------------+
|         802|   -3.552230|   -7.409182|    0.824092|    0.012191|
|         803|   -3.936057|   -7.449658|    0.824095|    0.012192|
|         804|   -4.177955|   -7.463873|    0.824097|    0.012192|
|         805|   -4.255564|   -7.472763|    0.824100|    0.012192|
|         806|   -4.308935|   -7.479922|    0.824102|    0.012192|
|         807|   -4.378565|   -7.486185|    0.824105|    0.012192|
|         808|   -4.464978|   -7.491801|    0.824107|    0.012193|
|         809|   -4.555928|   -7.496896|    0.824110|    0.012193|
|         810|   -4.635463|   -7.501526|    0.824112|    0.012193|
|         811|   -4.695120|   -7.505671|    0.824115|    0.012193|
|         812|   -4.735781|   -7.509315|    0.824117|    0.012193|
|         813|   -4.760433|   -7.512528|    0.824119|    0.012193|
|         814|   -4.772336|   -7.515437|    0.824121|    0.012194|
|         815|   -4.777299|   -7.518133|    0.824124|    0.012194|
|         816|   -4.782335|   -7.520627|    0.824126|    0.012194|
|         817|   -4.792335|   -7.522890|    0.824128|    0.012194|
|         818|   -4.808631|   -7.524906|    0.824129|    0.012194|
|         819|   -4.829551|   -7.526694|    0.824131|    0.012194|
|         820|   -4.851967|   -7.528304|    0.824133|    0.012195|
|         821|   -4.873182|   -7.529784|    0.824134|    0.012195|
|         822|   -4.892298|   -7.531162|    0.824135|    0.012195|
|         823|   -4.910154|   -7.532445|    0.824137|    0.012195|
|         824|   -4.928151|   -7.533625|    0.824138|    0.012195|
|         825|   -4.947098|   -7.534705|    0.824138|    0.012195|
|         826|   -4.966813|   -7.535692|    0.824139|    0.012195|
|         827|   -4.986376|   -7.536614|    0.824140|    0.012195|
|         828|   -5.004604|   -7.537512|    0.824140|    0.012195|
|         829|   -5.020465|   -7.538427|    0.824141|    0.012195|
|         830|   -5.033307|   -7.539399|    0.824141|    0.012195|
|         831|   -5.042990|   -7.540468|    0.824141|    0.012195|
|         832|   -5.049943|   -7.541663|    0.824141|    0.012195|
|         833|   -5.055092|   -7.543007|    0.824141|    0.012195|
|         834|   -5.059654|   -7.544509|    0.824140|    0.012195|
|         835|   -5.064834|   -7.546164|    0.824140|    0.012195|
|         836|   -5.071573|   -7.547964|    0.824139|    0.012195|
|         837|   -5.080410|   -7.549884|    0.824139|    0.012195|
|         838|   -5.091435|   -7.551896|    0.824138|    0.012195|
|         839|   -5.104301|   -7.553968|    0.824137|    0.012195|
|         840|   -5.118275|   -7.556071|    0.824136|    0.012195|
|         841|   -5.132338|   -7.558175|    0.824135|    0.012195|
|         842|   -5.145376|   -7.560254|    0.824134|    0.012195|
|         843|   -5.156453|   -7.562287|    0.824133|    0.012194|
|         844|   -5.165095|   -7.564262|    0.824131|    0.012194|
|         845|   -5.171447|   -7.566168|    0.824130|    0.012194|
|         846|   -5.176202|   -7.568002|    0.824129|    0.012194|
|         847|   -5.180354|   -7.569762|    0.824127|    0.012194|
|         848|   -5.184900|   -7.571448|    0.824125|    0.012194|
|         849|   -5.190609|   -7.573057|    0.824124|    0.012194|
|         850|   -5.197910|   -7.574590|    0.824122|    0.012194|
|         851|   -5.206881|   -7.576047|    0.824120|    0.012194|
|         852|   -5.217304|   -7.577428|    0.824118|    0.012193|
|         853|   -5.228755|   -7.578742|    0.824116|    0.012193|
|         854|   -5.240721|   -7.579989|    0.824114|    0.012193|
|         855|   -5.252709|   -7.581161|    0.824112|    0.012193|
|         856|   -5.264351|   -7.582254|    0.824110|    0.012193|
|         857|   -5.275462|   -7.583266|    0.824107|    0.012193|
|         858|   -5.286049|   -7.584198|    0.824105|    0.012193|
|         859|   -5.296272|   -7.585058|    0.824102|    0.012193|
|         860|   -5.306381|   -7.585855|    0.824100|    0.012192|
|         861|   -5.316638|   -7.586605|    0.824097|    0.012192|
|         862|   -5.327269|   -7.587326|    0.824094|    0.012192|
|         863|   -5.338427|   -7.588043|    0.824091|    0.012192|
|         864|   -5.350193|   -7.588784|    0.824088|    0.012192|
|         865|   -5.362581|   -7.589584|    0.824085|    0.012192|
|         866|   -5.375567|   -7.590478|    0.824082|    0.012192|
|         867|   -5.389108|   -7.591505|    0.824079|    0.012192|
|         868|   -5.403161|   -7.592702|    0.824076|    0.012192|
|         869|   -5.417697|   -7.594107|    0.824073|    0.012192|
|         870|   -5.432700|   -7.595751|    0.824070|    0.012192|
|         871|   -5.448165|   -7.597661|    0.824067|    0.012191|
|         872|   -5.464088|   -7.599852|    0.824064|    0.012191|
|         873|   -5.480459|   -7.602330|    0.824061|    0.012191|
|         874|   -5.497247|   -7.605086|    0.824059|    0.012191|
|         875|   -5.514398|   -7.608099|    0.824056|    0.012191|
|         876|   -5.531830|   -7.611329|    0.824054|    0.012191|
|         877|   -5.549433|   -7.614725|    0.824052|    0.012191|
|         878|   -5.567070|   -7.618221|    0.824049|    0.012191|
|         879|   -5.584579|   -7.621736|    0.824048|    0.012191|
|         880|   -5.601784|   -7.625183|    0.824046|    0.012191|
|         881|   -5.618491|   -7.628465|    0.824045|    0.012192|
|         882|   -5.634506|   -7.631489|    0.824043|    0.012192|
|         883|   -5.649633|   -7.634165|    0.824042|    0.012192|
|         884|   -5.663693|   -7.636414|    0.824042|    0.012192|
|         885|   -5.676528|   -7.638174|    0.824041|    0.012192|
|         886|   -5.688016|   -7.639405|    0.824041|    0.012192|
|         887|   -5.698077|   -7.640094|    0.824041|    0.012192|
|         888|   -5.706681|   -7.640252|    0.824041|    0.012192|
|         889|   -5.713851|   -7.639921|    0.824042|    0.012192|
|         890|   -5.719658|   -7.639167|    0.824043|    0.012193|
|         891|   -5.724214|   -7.638074|    0.824044|    0.012193|
|         892|   -5.727661|   -7.636744|    0.824045|    0.012193|
|         893|   -5.730161|   -7.635287|    0.824046|    0.012193|
|         894|   -5.731883|   -7.633819|    0.824047|    0.012193|
|         895|   -5.732995|   -7.632450|    0.824049|    0.012193|
|         896|   -5.733651|   -7.631288|    0.824051|    0.012194|
|         897|   -5.733995|   -7.630424|    0.824053|    0.012194|
|         898|   -5.734148|   -7.629940|    0.824055|    0.012194|
|         899|   -5.734217|   -7.629898|    0.824057|    0.012194|
|         900|   -5.734287|   -7.630345|    0.824060|    0.012194|
|         901|   -5.734430|   -7.631305|    0.824062|    0.012190|
+-----------------------------------------------------------------------+
|Fixed CL Mode                           |Value                         |
+-----------------------------------------------------------------------+
|Current CL                              |0.824062                      |
|Target CL                               |0.824                         |
|Previous AOA                            |2.79264                       |
[...]
|        5298|   -6.059229|   -7.943691|    0.824235|    0.012198|
|        5299|   -6.066110|   -7.948626|    0.824235|    0.012198|
|        5300|   -6.072622|   -7.953569|    0.824235|    0.012198|
|        5301|   -6.078725|   -7.958538|    0.824236|    0.012198|
|        5302|   -6.084388|   -7.963544|    0.824236|    0.012198|
|        5303|   -6.089590|   -7.968598|    0.824236|    0.012198|
|        5304|   -6.094323|   -7.973709|    0.824236|    0.012198|
|        5305|   -6.098588|   -7.978882|    0.824236|    0.012198|
|        5306|   -6.102400|   -7.984122|    0.824236|    0.012198|
|        5307|   -6.105784|   -7.989432|    0.824236|    0.012198|
|        5308|   -6.108772|   -7.994814|    0.824236|    0.012198|
|        5309|   -6.111407|   -8.000271|    0.824236|    0.012198|
|        5310|   -6.113735|   -8.005805|    0.824236|    0.012198|
|        5311|   -6.115809|   -8.011419|    0.824236|    0.012198|
|        5312|   -6.117684|   -8.017115|    0.824236|    0.012198|
|        5313|   -6.119416|   -8.022899|    0.824236|    0.012198|
|        5314|   -6.121059|   -8.028775|    0.824236|    0.012198|
|        5315|   -6.122666|   -8.034749|    0.824236|    0.012198|
|        5316|   -6.124288|   -8.040828|    0.824236|    0.012198|
|        5317|   -6.125969|   -8.047020|    0.824236|    0.012198|
|        5318|   -6.127750|   -8.053333|    0.824236|    0.012198|
|        5319|   -6.129667|   -8.059775|    0.824237|    0.012198|
|        5320|   -6.131748|   -8.066354|    0.824237|    0.012198|
|        5321|   -6.134015|   -8.073077|    0.824237|    0.012198|
|        5322|   -6.136484|   -8.079950|    0.824237|    0.012198|
|        5323|   -6.139164|   -8.086980|    0.824237|    0.012198|
|        5324|   -6.142056|   -8.094170|    0.824237|    0.012198|
|        5325|   -6.145157|   -8.101521|    0.824237|    0.012198|
|        5326|   -6.148455|   -8.109035|    0.824237|    0.012199|
|        5327|   -6.151932|   -8.116708|    0.824237|    0.012199|
|        5328|   -6.155565|   -8.124537|    0.824237|    0.012199|
|        5329|   -6.159325|   -8.132515|    0.824237|    0.012199|
|        5330|   -6.163177|   -8.140634|    0.824237|    0.012199|
|        5331|   -6.167084|   -8.148882|    0.824238|    0.012199|
|        5332|   -6.171004|   -8.157247|    0.824238|    0.012199|
|        5333|   -6.174895|   -8.165716|    0.824238|    0.012199|
|        5334|   -6.178714|   -8.174273|    0.824238|    0.012199|
|        5335|   -6.182417|   -8.182902|    0.824238|    0.012199|
|        5336|   -6.185964|   -8.191586|    0.824238|    0.012199|
|        5337|   -6.189318|   -8.200309|    0.824238|    0.012199|
|        5338|   -6.192447|   -8.209054|    0.824238|    0.012200|
|        5339|   -6.195328|   -8.217802|    0.824238|    0.012200|
|        5340|   -6.197942|   -8.226537|    0.824238|    0.012200|
|        5341|   -6.200280|   -8.235245|    0.824238|    0.012200|
|        5342|   -6.202342|   -8.243909|    0.824238|    0.012200|
|        5343|   -6.204137|   -8.252519|    0.824238|    0.012200|
|        5344|   -6.205682|   -8.261061|    0.824238|    0.012200|
|        5345|   -6.207003|   -8.269526|    0.824238|    0.012200|
|        5346|   -6.208132|   -8.277905|    0.824238|    0.012200|
|        5347|   -6.209105|   -8.286191|    0.824238|    0.012200|
|        5348|   -6.209967|   -8.294378|    0.824238|    0.012200|
|        5349|   -6.210760|   -8.302462|    0.824238|    0.012200|
|        5350|   -6.211533|   -8.310438|    0.824238|    0.012200|
|        5351|   -6.212333|   -8.318304|    0.824238|    0.012200|
|        5352|   -6.213204|   -8.326058|    0.824238|    0.012200|
|        5353|   -6.214193|   -8.333697|    0.824238|    0.012200|
|        5354|   -6.215340|   -8.341219|    0.824238|    0.012200|
|        5355|   -6.216684|   -8.348624|    0.824238|    0.012200|
|        5356|   -6.218260|   -8.355908|    0.824238|    0.012200|
|        5357|   -6.220096|   -8.363069|    0.824238|    0.012201|
|        5358|   -6.222219|   -8.370104|    0.824238|    0.012201|
|        5359|   -6.224649|   -8.377011|    0.824238|    0.012201|
|        5360|   -6.227401|   -8.383784|    0.824238|    0.012201|
|        5361|   -6.230485|   -8.390418|    0.824237|    0.012201|
|        5362|   -6.233908|   -8.396910|    0.824237|    0.012201|
|        5363|   -6.237667|   -8.403251|    0.824237|    0.012200|
|        5364|   -6.241759|   -8.409436|    0.824237|    0.012200|
|        5365|   -6.246172|   -8.415458|    0.824237|    0.012200|
|        5366|   -6.250891|   -8.421315|    0.824237|    0.012200|
|        5367|   -6.255895|   -8.426995|    0.824237|    0.012200|
|        5368|   -6.261159|   -8.432491|    0.824237|    0.012200|
|        5369|   -6.266650|   -8.437794|    0.824236|    0.012200|
|        5370|   -6.272334|   -8.442901|    0.824236|    0.012200|
|        5371|   -6.278171|   -8.447806|    0.824236|    0.012200|
|        5372|   -6.284118|   -8.452508|    0.824236|    0.012200|
|        5373|   -6.290126|   -8.457007|    0.824236|    0.012200|
|        5374|   -6.296148|   -8.461303|    0.824236|    0.012200|
|        5375|   -6.302132|   -8.465402|    0.824236|    0.012200|
|        5376|   -6.308024|   -8.469307|    0.824236|    0.012200|
|        5377|   -6.313775|   -8.473029|    0.824235|    0.012200|
|        5378|   -6.319333|   -8.476577|    0.824235|    0.012200|
|        5379|   -6.324652|   -8.479964|    0.824235|    0.012200|
|        5380|   -6.329689|   -8.483204|    0.824235|    0.012200|
|        5381|   -6.334405|   -8.486314|    0.824235|    0.012200|
|        5382|   -6.338769|   -8.489309|    0.824235|    0.012199|
|        5383|   -6.342758|   -8.492209|    0.824235|    0.012199|
|        5384|   -6.346354|   -8.495030|    0.824235|    0.012199|
|        5385|   -6.349548|   -8.497790|    0.824235|    0.012199|
|        5386|   -6.352339|   -8.500505|    0.824234|    0.012199|
|        5387|   -6.354733|   -8.503190|    0.824234|    0.012199|
|        5388|   -6.356744|   -8.505859|    0.824234|    0.012199|
|        5389|   -6.358388|   -8.508521|    0.824234|    0.012199|
|        5390|   -6.359689|   -8.511185|    0.824234|    0.012199|
|        5391|   -6.360672|   -8.513855|    0.824234|    0.012199|
|        5392|   -6.361366|   -8.516535|    0.824234|    0.012199|
|        5393|   -6.361799|   -8.519221|    0.824234|    0.012198|
|        5394|   -6.362001|   -8.521911|    0.824234|    0.012198|
|        5395|   -6.361999|   -8.524595|    0.824234|    0.012198|
|        5396|   -6.361819|   -8.527264|    0.824234|    0.012198|
|        5397|   -6.361485|   -8.529904|    0.824234|    0.012198|
|        5398|   -6.361021|   -8.532501|    0.824234|    0.012198|
|        5399|   -6.360443|   -8.535037|    0.824234|    0.012198|
|        5400|   -6.359770|   -8.537494|    0.824234|    0.012198|
|        5401|   -6.359013|   -8.539855|    0.824234|    0.012198|
|        5402|   -6.358186|   -8.542102|    0.824235|    0.012197|
|        5403|   -6.357298|   -8.544218|    0.824235|    0.012197|
|        5404|   -6.356354|   -8.546188|    0.824235|    0.012197|
|        5405|   -6.355362|   -8.548000|    0.824235|    0.012197|
|        5406|   -6.354326|   -8.549644|    0.824235|    0.012197|
|        5407|   -6.353250|   -8.551112|    0.824235|    0.012197|
|        5408|   -6.352137|   -8.552402|    0.824235|    0.012197|
|        5409|   -6.350989|   -8.553511|    0.824235|    0.012197|
|        5410|   -6.349809|   -8.554442|    0.824235|    0.012197|
|        5411|   -6.348601|   -8.555202|    0.824235|    0.012197|
|        5412|   -6.347366|   -8.555797|    0.824235|    0.012197|
|        5413|   -6.346109|   -8.556237|    0.824235|    0.012197|
|        5414|   -6.344834|   -8.556534|    0.824235|    0.012196|
|        5415|   -6.343545|   -8.556698|    0.824235|    0.012196|
|        5416|   -6.342248|   -8.556743|    0.824235|    0.012196|
|        5417|   -6.340947|   -8.556680|    0.824235|    0.012196|
|        5418|   -6.339651|   -8.556520|    0.824236|    0.012196|
|        5419|   -6.338366|   -8.556274|    0.824236|    0.012196|
|        5420|   -6.337101|   -8.555951|    0.824236|    0.012196|
|        5421|   -6.335864|   -8.555558|    0.824236|    0.012196|
|        5422|   -6.334666|   -8.555102|    0.824236|    0.012196|
|        5423|   -6.333516|   -8.554586|    0.824236|    0.012196|
|        5424|   -6.332426|   -8.554015|    0.824236|    0.012196|
|        5425|   -6.331408|   -8.553391|    0.824236|    0.012196|
|        5426|   -6.330476|   -8.552715|    0.824236|    0.012196|
|        5427|   -6.329642|   -8.551988|    0.824236|    0.012196|
|        5428|   -6.328920|   -8.551212|    0.824236|    0.012196|
|        5429|   -6.328326|   -8.550387|    0.824236|    0.012196|
|        5430|   -6.327873|   -8.549514|    0.824236|    0.012196|
|        5431|   -6.327579|   -8.548597|    0.824236|    0.012196|
|        5432|   -6.327457|   -8.547638|    0.824236|    0.012196|
|        5433|   -6.327523|   -8.546642|    0.824236|    0.012196|
|        5434|   -6.327793|   -8.545615|    0.824235|    0.012196|
|        5435|   -6.328282|   -8.544564|    0.824235|    0.012196|
|        5436|   -6.329002|   -8.543497|    0.824235|    0.012196|
|        5437|   -6.329968|   -8.542424|    0.824235|    0.012196|
|        5438|   -6.331192|   -8.541355|    0.824235|    0.012196|
|        5439|   -6.332684|   -8.540300|    0.824235|    0.012196|
|        5440|   -6.334453|   -8.539272|    0.824235|    0.012196|
|        5441|   -6.336507|   -8.538282|    0.824235|    0.012196|
|        5442|   -6.338851|   -8.537342|    0.824235|    0.012196|
|        5443|   -6.341487|   -8.536463|    0.824235|    0.012196|
|        5444|   -6.344416|   -8.535656|    0.824235|    0.012196|
|        5445|   -6.347635|   -8.534931|    0.824235|    0.012196|
|        5446|   -6.351139|   -8.534298|    0.824235|    0.012196|
|        5447|   -6.354918|   -8.533765|    0.824234|    0.012196|
|        5448|   -6.358959|   -8.533340|    0.824234|    0.012197|
|        5449|   -6.363247|   -8.533028|    0.824234|    0.012197|
|        5450|   -6.367761|   -8.532833|    0.824234|    0.012197|
|        5451|   -6.372478|   -8.532761|    0.824234|    0.012197|
|        5452|   -6.377368|   -8.532813|    0.824234|    0.012197|
|        5453|   -6.382401|   -8.532991|    0.824234|    0.012197|
|        5454|   -6.387540|   -8.533295|    0.824233|    0.012197|
|        5455|   -6.392744|   -8.533725|    0.824233|    0.012197|
|        5456|   -6.397972|   -8.534279|    0.824233|    0.012197|
|        5457|   -6.403177|   -8.534956|    0.824233|    0.012197|
|        5458|   -6.408311|   -8.535752|    0.824233|    0.012197|
|        5459|   -6.413324|   -8.536666|    0.824232|    0.012197|
|        5460|   -6.418166|   -8.537694|    0.824232|    0.012197|
|        5461|   -6.422786|   -8.538831|    0.824232|    0.012197|
|        5462|   -6.427138|   -8.540075|    0.824232|    0.012198|
|        5463|   -6.431175|   -8.541421|    0.824232|    0.012198|
|        5464|   -6.434857|   -8.542864|    0.824231|    0.012198|
|        5465|   -6.438148|   -8.544402|    0.824231|    0.012198|
|        5466|   -6.441020|   -8.546029|    0.824231|    0.012198|
|        5467|   -6.443451|   -8.547741|    0.824231|    0.012198|
|        5468|   -6.445428|   -8.549534|    0.824230|    0.012198|
|        5469|   -6.446946|   -8.551404|    0.824230|    0.012198|
|        5470|   -6.448009|   -8.553347|    0.824230|    0.012198|
|        5471|   -6.448630|   -8.555358|    0.824230|    0.012198|
|        5472|   -6.448829|   -8.557433|    0.824229|    0.012198|
|        5473|   -6.448633|   -8.559566|    0.824229|    0.012198|
|        5474|   -6.448075|   -8.561754|    0.824229|    0.012198|
|        5475|   -6.447192|   -8.563992|    0.824229|    0.012198|
|        5476|   -6.446026|   -8.566275|    0.824228|    0.012198|
|        5477|   -6.444622|   -8.568597|    0.824228|    0.012198|
|        5478|   -6.443023|   -8.570954|    0.824228|    0.012198|
|        5479|   -6.441275|   -8.573340|    0.824228|    0.012198|
|        5480|   -6.439422|   -8.575750|    0.824227|    0.012198|
|        5481|   -6.437508|   -8.578180|    0.824227|    0.012199|
|        5482|   -6.435574|   -8.580624|    0.824227|    0.012199|
|        5483|   -6.433657|   -8.583077|    0.824227|    0.012199|
|        5484|   -6.431793|   -8.585534|    0.824226|    0.012199|
|        5485|   -6.430014|   -8.587993|    0.824226|    0.012199|
|        5486|   -6.428351|   -8.590448|    0.824226|    0.012199|
|        5487|   -6.426828|   -8.592897|    0.824226|    0.012199|
|        5488|   -6.425470|   -8.595338|    0.824225|    0.012199|
|        5489|   -6.424294|   -8.597768|    0.824225|    0.012199|
|        5490|   -6.423320|   -8.600187|    0.824225|    0.012199|
|        5491|   -6.422560|   -8.602594|    0.824225|    0.012199|
|        5492|   -6.422026|   -8.604990|    0.824224|    0.012199|
|        5493|   -6.421727|   -8.607375|    0.824224|    0.012198|
|        5494|   -6.421671|   -8.609753|    0.824224|    0.012198|
|        5495|   -6.421862|   -8.612126|    0.824224|    0.012198|
|        5496|   -6.422302|   -8.614496|    0.824224|    0.012198|
|        5497|   -6.422994|   -8.616869|    0.824223|    0.012198|
|        5498|   -6.423936|   -8.619248|    0.824223|    0.012198|
|        5499|   -6.425128|   -8.621638|    0.824223|    0.012184|
+-----------------------------------------------------------------------+
|Fixed CL Mode (Finite Difference)       |Value                         |
+-----------------------------------------------------------------------+
|Delta CL / Delta AoA                    |0.222932                      |
|Delta CD / Delta CL                     |0.0237043                     |
|Delta CMz / Delta CL                    |-0.00162164                   |
+-----------------------------------------------------------------------+
Writing Flow Meta-Data file: flow.meta

----------------------------- Solver Exit -------------------------------

Maximum number of iterations reached (ITER = 5500) before convergence.
+-----------------------------------------------------------------------+
|      Convergence Field     |     Value    |   Criterion  |  Converged |
+-----------------------------------------------------------------------+
|                    rms[Rho]|      -6.42513|         < -12|          No|
+-----------------------------------------------------------------------+
-------------------------------------------------------------------------

--------------------------- Finalizing Solver ---------------------------
Deleted CNumerics container.
Deleted CIntegration container.
Deleted CSolver container.
Deleted CIteration container.
Deleted CInterface container.
Deleted CGeometry container.
Deleted CFreeFormDefBox class.
Deleted CSurfaceMovement class.
Deleted CVolumetricMovement class.
Deleted CConfig container.
Deleted nInst container.
Deleted COutput class.
-------------------------------------------------------------------------

------------------------- Exit Success (SU2_CFD) ------------------------


-------------------------------------------------------------------------
|    ___ _   _ ___                                                      |
|   / __| | | |_  )   Release 8.0.0 "Harrier"                           |
|   \__ \ |_| |/ /                                                      |
|   |___/\___//___|   Suite (Solution Exporting Code)                   |
|                                                                       |
-------------------------------------------------------------------------
| SU2 Project Website: https://su2code.github.io                        |
|                                                                       |
| The SU2 Project is maintained by the SU2 Foundation                   |
| (http://su2foundation.org)                                            |
-------------------------------------------------------------------------
| Copyright 2012-2023, SU2 Contributors                                 |
|                                                                       |
| SU2 is free software; you can redistribute it and/or                  |
| modify it under the terms of the GNU Lesser General Public            |
| License as published by the Free Software Foundation; either          |
| version 2.1 of the License, or (at your option) any later version.    |
|                                                                       |
| SU2 is distributed in the hope that it will be useful,                |
| but WITHOUT ANY WARRANTY; without even the implied warranty of        |
| MERCHANTABILITY or FITNESS FOR A PARTICULAR PURPOSE. See the GNU      |
| Lesser General Public License for more details.                       |
|                                                                       |
| You should have received a copy of the GNU Lesser General Public      |
| License along with SU2. If not, see <http://www.gnu.org/licenses/>.   |
-------------------------------------------------------------------------

----------------- Physical Case Definition ( Zone 0 ) -------------------
Input mesh file name: mesh_RAE2822_turb_deform.su2

-------------------- Output Information ( Zone 0 ) ----------------------
The tabular file format is CSV (.csv).
Flow variables file name: flow.

------------- Config File Boundary Information ( Zone 0 ) ---------------
+-----------------------------------------------------------------------+
|                        Marker Type|                        Marker Name|
+-----------------------------------------------------------------------+
|                          Far-field|                           FARFIELD|
+-----------------------------------------------------------------------+
|                     Heat flux wall|                            AIRFOIL|
+-----------------------------------------------------------------------+
Two dimensional problem.
13937 grid points before partitioning.
22842 volume elements before partitioning.
2 surface markers.
192 boundary elements in index 0 (Marker = AIRFOIL).
40 boundary elements in index 1 (Marker = FARFIELD).
Executing the partitioning functions.
Building the graph adjacency structure.
Calling ParMETIS... graph partitioning complete (831 edge cuts).
Distributing ParMETIS coloring.
Rebalancing vertices.
Rebalancing volume element connectivity.
Rebalancing markers and surface elements.
14875 vertices including ghost points. 
23674 interior elements including halo cells. 
18780 triangles.
4894 quadrilaterals.
Establishing MPI communication patterns.
Identify vertices.
Storing a mapping from global to local point index.

------------------------- Solution Postprocessing -----------------------
Reading and storing the solution from restart_flow.
Volume output fields: COORDINATES, SOLUTION
  Info: Ignoring the following screen output fields:
  RMS_DENSITY, RMS_NU_TILDE, LIFT, DRAG
Screen output fields: INNER_ITER
  Info: Ignoring the following history output groups:
  RMS_RES, AERO_COEFF
History output group(s): ITER
Warning: No (valid) fields chosen for convergence monitoring. Convergence monitoring inactive.
Warning: No (valid) fields chosen for time convergence monitoring. Time convergence monitoring inactive.
|Paraview                           |flow.vtu                           |
|Paraview surface                   |surface_flow.vtu                   |
|CSV file                           |surface_flow.csv                   |

------------------------- Finalize Solver -------------------------
Deleted CGeometry container.
Deleted CSolver class.
Deleted CConfig container.
Deleted COutput class.

Completed in 0.017943 seconds on 6 cores.

------------------------- Exit Success (SU2_SOL) ------------------------

