
-------------------------------------------------------------------------
|    ___ _   _ ___                                                      |
|   / __| | | |_  )   Release 8.0.0 "Harrier"                           |
|   \__ \ |_| |/ /                                                      |
|   |___/\___//___|   Suite (Computational Fluid Dynamics Code)         |
|                                                                       |
-------------------------------------------------------------------------
| SU2 Project Website: https://su2code.github.io                        |
|                                                                       |
| The SU2 Project is maintained by the SU2 Foundation                   |
| (http://su2foundation.org)                                            |
-------------------------------------------------------------------------
| Copyright 2012-2023, SU2 Contributors                                 |
|                                                                       |
| SU2 is free software; you can redistribute it and/or                  |
| modify it under the terms of the GNU Lesser General Public            |
| License as published by the Free Software Foundation; either          |
| version 2.1 of the License, or (at your option) any later version.    |
|                                                                       |
| SU2 is distributed in the hope that it will be useful,                |
| but WITHOUT ANY WARRANTY; without even the implied warranty of        |
| MERCHANTABILITY or FITNESS FOR A PARTICULAR PURPOSE. See the GNU      |
| Lesser General Public License for more details.                       |
|                                                                       |
| You should have received a copy of the GNU Lesser General Public      |
| License along with SU2. If not, see <http://www.gnu.org/licenses/>.   |
-------------------------------------------------------------------------

Parsing config file for zone 0

----------------- Physical Case Definition ( Zone 0 ) -------------------
Compressible RANS equations.
Turbulence model: Spalart-Allmaras-noft2
Hybrid RANS/LES: No Hybrid RANS/LES
Mach number: 0.734.
Angle of attack (AoA): 2.31 deg, and angle of sideslip (AoS): 0 deg.
Reynolds number: 6.5e+06. Reference length 1.
Fixed CL mode, target value: 0.824.
Reading and writing binary SU2 native restart files.
Read flow solution from: solution_flow.dat.
Dimensional simulation.
The reference area is 1 m^2.
The semi-span will be computed using the max y(3D) value.
The reference length is 1 m.
Reference origin for moment evaluation is (0.25, 0, 0).
Surface(s) where the force coefficients are evaluated: AIRFOIL.

Surface(s) plotted in the output file: AIRFOIL.
Surface(s) affected by the design variables: AIRFOIL.
Input mesh file name: mesh_RAE2822_turb_deform.su2

--------------- Space Numerical Integration ( Zone 0 ) ------------------
Jameson-Schmidt-Turkel scheme (2nd order in space) for the flow inviscid terms.
JST viscous coefficients (2nd & 4th): 0.5, 0.02.
The method includes a grid stretching correction (p = 0.3).
Scalar upwind solver for the turbulence model.
First order integration in space.
Average of gradients with correction (viscous flow terms).
Average of gradients with correction (viscous turbulence terms).
Gradient for viscous and source terms: inverse-distance weighted Least-Squares.

--------------- Time Numerical Integration  ( Zone 0 ) ------------------
Local time stepping (steady state simulation).
Euler implicit method for the flow equations.
FGMRES is used for solving the linear system.
Using a ILU(0) preconditioning.
Convergence criteria of the linear solver: 1e-06.
Max number of linear iterations: 10.
No CFL adaptation.
Courant-Friedrichs-Lewy number:       10
Euler implicit time integration for the turbulence model.

------------------ Convergence Criteria  ( Zone 0 ) ---------------------
Maximum number of solver subiterations: 5500.
Begin convergence monitoring at iteration 10.
Residual minimum value: 1e-12.
Cauchy series min. value: 1e-06.
Number of Cauchy elements: 100.
Begin windowed time average at iteration 0.

-------------------- Output Information ( Zone 0 ) ----------------------
File writing frequency: 
+------------------------------------+
|                     File| Frequency|
+------------------------------------+
|                  RESTART|     10000|
|                 PARAVIEW|     10000|
|         SURFACE_PARAVIEW|     10000|
|              SURFACE_CSV|     10000|
+------------------------------------+
Writing the convergence history file every 1 inner iterations.
Writing the screen convergence history every 1 inner iterations.
The tabular file format is CSV (.csv).
Convergence history file name: history_direct.
Forces breakdown file name: forces_breakdown.dat.
Surface file name: surface_flow.
Volume file name: flow.
Restart file name: restart_flow.dat.

------------- Config File Boundary Information ( Zone 0 ) ---------------
+-----------------------------------------------------------------------+
|                        Marker Type|                        Marker Name|
+-----------------------------------------------------------------------+
|                          Far-field|                           FARFIELD|
+-----------------------------------------------------------------------+
|                     Heat flux wall|                            AIRFOIL|
+-----------------------------------------------------------------------+

-------------------- Output Preprocessing ( Zone 0 ) --------------------

WARNING: SURFACE_PRESSURE_DROP can only be computed for at least 2 surfaces (outlet, inlet, ...)

Screen output fields: INNER_ITER, RMS_DENSITY, RMS_NU_TILDE, LIFT, DRAG
History output group(s): ITER, RMS_RES, AERO_COEFF
Convergence field(s): RMS_DENSITY
Warning: No (valid) fields chosen for time convergence monitoring. Time convergence monitoring inactive.
Volume output fields: COORDINATES, SOLUTION, PRIMITIVE

------------------- Geometry Preprocessing ( Zone 0 ) -------------------
Two dimensional problem.
13937 grid points before partitioning.
22842 volume elements before partitioning.
2 surface markers.
192 boundary elements in index 0 (Marker = AIRFOIL).
40 boundary elements in index 1 (Marker = FARFIELD).
Executing the partitioning functions.
Building the graph adjacency structure.
Calling ParMETIS... graph partitioning complete (831 edge cuts).
Distributing ParMETIS coloring.
Rebalancing vertices.
Rebalancing volume element connectivity.
Rebalancing markers and surface elements.
14875 vertices including ghost points. 
23674 interior elements including halo cells. 
18780 triangles.
4894 quadrilaterals.
Establishing MPI communication patterns.
Setting point connectivity.
Renumbering points (Reverse Cuthill McKee Ordering).
Recomputing point connectivity.
Setting element connectivity.
Checking the numerical grid orientation.
All volume elements are correctly orientend.
All surface elements are correctly orientend.
Identifying edges and vertices.
Setting the control volume structure.
Area of the computational grid: 32209.9.
Searching for the closest normal neighbors to the surfaces.
Storing a mapping from global to local point index.
Compute the surface curvature.
Max K: 159.035. Mean K: 7.32151. Standard deviation K: 21.7514.
Checking for periodicity.
Computing mesh quality statistics for the dual control volumes.
+--------------------------------------------------------------+
|           Mesh Quality Metric|        Minimum|        Maximum|
+--------------------------------------------------------------+
|    Orthogonality Angle (deg.)|        75.2882|        89.9991|
|     CV Face Area Aspect Ratio|        1.00149|        3358.36|
|           CV Sub-Volume Ratio|        1.00061|        1210.84|
+--------------------------------------------------------------+
Finding max control volume width.
Communicating number of neighbors.
Wetted area = 2.02333 m.
Area projection in the x-plane = 0.123919 m, y-plane = 0.995873 m.
Max. coordinate in the x-direction = 1 m, y-direction = 0.063588 m.
Min. coordinate in the x-direction = 0 m, y-direction = -0.059362 m.
Computing wall distances.

-------------------- Solver Preprocessing ( Zone 0 ) --------------------
WARNING: AoA in the solution file (2.78081 deg.) +
         AoA offset in mesh file (0 deg.) = 2.78081 deg.
WARNING: SU2 will use the dCD/dCL provided in the direct solution file: 0.0204483.
WARNING: SU2 will use the dCMz/dCL provided in the direct solution file: 0.0150753.
Viscous flow: Computing pressure using the ideal gas law
based on the free-stream temperature and a density computed
from the Reynolds number.
Force coefficients computed using free-stream values.

-- Models:
+------------------------------------------------------------------------------+
|          Viscosity Model|        Conductivity Model|              Fluid Model|
+------------------------------------------------------------------------------+
|               SUTHERLAND|          CONSTANT_PRANDTL|             STANDARD_AIR|
+------------------------------------------------------------------------------+
-- Fluid properties:
+------------------------------------------------------------------------------+
|                  Name|    Dim. value|    Ref. value|      Unit|Non-dim. value|
+------------------------------------------------------------------------------+
|        Ref. Viscosity|     1.716e-05|             1|   N.s/m^2|     1.716e-05|
|      Sutherland Temp.|        273.15|             1|         K|        273.15|
|     Sutherland Const.|         110.4|             1|         K|         110.4|
+------------------------------------------------------------------------------+
|        Prandtl (Lam.)|             -|             -|         -|          0.71|
|       Prandtl (Turb.)|             -|             -|         -|           0.9|
+------------------------------------------------------------------------------+
|          Gas Constant|       287.058|             1|  N.m/kg.K|       287.058|
|      Spec. Heat Ratio|             -|             -|         -|           1.4|
+------------------------------------------------------------------------------+
-- Initial and free-stream conditions:
+------------------------------------------------------------------------------+
|                  Name|    Dim. value|    Ref. value|      Unit|Non-dim. value|
+------------------------------------------------------------------------------+
|       Static Pressure|         38515|             1|        Pa|         38515|
|               Density|      0.465631|             1|    kg/m^3|      0.465631|
|           Temperature|        288.15|             1|         K|        288.15|
|          Total Energy|        237984|             1|   m^2/s^2|        237984|
|            Velocity-X|       249.484|             1|       m/s|       249.484|
|            Velocity-Y|        12.118|             1|       m/s|        12.118|
|    Velocity Magnitude|       249.778|             1|       m/s|       249.778|
+------------------------------------------------------------------------------+
|             Viscosity|    1.7893e-05|             1|   N.s/m^2|    1.7893e-05|
|          Conductivity|             -|             1|   W/m^2.K|             -|
|     Turb. Kin. Energy|       233.959|             1|   m^2/s^2|       233.959|
|     Spec. Dissipation|        608834|             1|       1/s|        608834|
+------------------------------------------------------------------------------+
|           Mach Number|             -|             -|         -|         0.734|
|       Reynolds Number|             -|             -|         -|       6.5e+06|
+------------------------------------------------------------------------------+
Initialize Jacobian structure (Navier-Stokes). MG level: 0.
Initialize Jacobian structure (SA model).

------------------- Numerics Preprocessing ( Zone 0 ) -------------------

----------------- Integration Preprocessing ( Zone 0 ) ------------------

------------------- Iteration Preprocessing ( Zone 0 ) ------------------
Euler/Navier-Stokes/RANS fluid iteration.

------------------------------ Begin Solver -----------------------------

Simulation Run using the Single-zone Driver
WARNING: SU2 was not compiled for an AVX-capable architecture. Performance could be better,
         see https://su2code.github.io/docs_v7/Build-SU2-Linux-MacOS/#compiler-optimizations
+----------------------------------------------------------------+
|  Inner_Iter|    rms[Rho]|     rms[nu]|          CL|          CD|
+----------------------------------------------------------------+
|           0|   -7.613842|   -8.851398|    0.824000|    0.012159|
|           1|   -7.671116|   -8.959950|    0.824000|    0.012159|
|           2|   -7.736568|   -9.080899|    0.824000|    0.012159|
|           3|   -7.796138|   -9.206504|    0.824000|    0.012159|
|           4|   -7.846608|   -9.326951|    0.824000|    0.012159|
|           5|   -7.883502|   -9.426767|    0.824000|    0.012159|
|           6|   -7.903635|   -9.487651|    0.824000|    0.012159|
|           7|   -7.908870|   -9.503413|    0.824000|    0.012159|
|           8|   -7.904202|   -9.489373|    0.824000|    0.012159|
|           9|   -7.893906|   -9.467343|    0.824000|    0.012159|
|          10|   -7.880560|   -9.451000|    0.824000|    0.012159|
|          11|   -7.866031|   -9.445250|    0.824000|    0.012159|
|          12|   -7.852062|   -9.449675|    0.824000|    0.012159|
|          13|   -7.840071|   -9.460444|    0.824000|    0.012159|
|          14|   -7.830854|   -9.470722|    0.824000|    0.012159|
|          15|   -7.824577|   -9.471788|    0.824000|    0.012159|
|          16|   -7.820959|   -9.457327|    0.824000|    0.012159|
|          17|   -7.819469|   -9.428501|    0.824000|    0.012159|
|          18|   -7.819449|   -9.393116|    0.824000|    0.012159|
|          19|   -7.820194|   -9.359906|    0.824000|    0.012159|
|          20|   -7.821052|   -9.334818|    0.824000|    0.012159|
|          21|   -7.821542|   -9.320707|    0.824000|    0.012159|
|          22|   -7.821469|   -9.318240|    0.824000|    0.012159|
|          23|   -7.820949|   -9.326630|    0.824000|    0.012159|
|          24|   -7.820345|   -9.343955|    0.824000|    0.012159|
|          25|   -7.820107|   -9.367215|    0.824000|    0.012159|
|          26|   -7.820617|   -9.392422|    0.824000|    0.012159|
|          27|   -7.822074|   -9.415143|    0.824000|    0.012159|
|          28|   -7.824449|   -9.431731|    0.824000|    0.012159|
|          29|   -7.827516|   -9.440742|    0.824000|    0.012159|
|          30|   -7.830924|   -9.443381|    0.824000|    0.012159|
|          31|   -7.834298|   -9.442532|    0.824000|    0.012159|
|          32|   -7.837325|   -9.441279|    0.824000|    0.012159|
|          33|   -7.839817|   -9.441955|    0.824000|    0.012159|
|          34|   -7.841722|   -9.445894|    0.824000|    0.012159|
|          35|   -7.843106|   -9.453564|    0.824000|    0.012159|
|          36|   -7.844104|   -9.464801|    0.824000|    0.012159|
|          37|   -7.844872|   -9.479015|    0.824000|    0.012159|
|          38|   -7.845554|   -9.495338|    0.824000|    0.012159|
|          39|   -7.846258|   -9.512743|    0.824000|    0.012159|
|          40|   -7.847050|   -9.530152|    0.824000|    0.012159|
|          41|   -7.847962|   -9.546541|    0.824000|    0.012159|
|          42|   -7.848992|   -9.561040|    0.824000|    0.012159|
|          43|   -7.850119|   -9.573028|    0.824000|    0.012159|
|          44|   -7.851305|   -9.582193|    0.824000|    0.012159|
|          45|   -7.852500|   -9.588545|    0.824000|    0.012159|
|          46|   -7.853649|   -9.592379|    0.824000|    0.012159|
|          47|   -7.854691|   -9.594188|    0.824000|    0.012159|
|          48|   -7.855568|   -9.594574|    0.824000|    0.012159|
|          49|   -7.856225|   -9.594142|    0.824000|    0.012159|
|          50|   -7.856618|   -9.593437|    0.824000|    0.012159|
|          51|   -7.856722|   -9.592891|    0.824000|    0.012159|
|          52|   -7.856529|   -9.592802|    0.824000|    0.012159|
|          53|   -7.856054|   -9.593341|    0.824000|    0.012159|
|          54|   -7.855334|   -9.594560|    0.824000|    0.012159|
|          55|   -7.854420|   -9.596424|    0.824000|    0.012159|
|          56|   -7.853372|   -9.598840|    0.824000|    0.012159|
|          57|   -7.852250|   -9.601694|    0.824000|    0.012159|
|          58|   -7.851104|   -9.604875|    0.824000|    0.012159|
|          59|   -7.849974|   -9.608299|    0.824000|    0.012159|
|          60|   -7.848883|   -9.611923|    0.824000|    0.012159|
|          61|   -7.847837|   -9.615740|    0.824000|    0.012159|
|          62|   -7.846833|   -9.619774|    0.824000|    0.012159|
|          63|   -7.845863|   -9.624066|    0.824000|    0.012159|
|          64|   -7.844918|   -9.628656|    0.824000|    0.012159|
|          65|   -7.843994|   -9.633574|    0.824000|    0.012159|
|          66|   -7.843096|   -9.638824|    0.824000|    0.012159|
|          67|   -7.842239|   -9.644387|    0.824000|    0.012159|
|          68|   -7.841443|   -9.650222|    0.824000|    0.012159|
|          69|   -7.840731|   -9.656267|    0.824000|    0.012159|
|          70|   -7.840127|   -9.662452|    0.824000|    0.012159|
|          71|   -7.839650|   -9.668701|    0.824000|    0.012159|
|          72|   -7.839311|   -9.674944|    0.824000|    0.012159|
|          73|   -7.839116|   -9.681118|    0.824000|    0.012159|
|          74|   -7.839062|   -9.687169|    0.824000|    0.012159|
|          75|   -7.839142|   -9.693053|    0.824000|    0.012159|
|          76|   -7.839346|   -9.698733|    0.824000|    0.012159|
|          77|   -7.839665|   -9.704178|    0.824000|    0.012159|
|          78|   -7.840093|   -9.709358|    0.824000|    0.012159|
|          79|   -7.840625|   -9.714248|    0.824000|    0.012159|
|          80|   -7.841260|   -9.718826|    0.824000|    0.012159|
|          81|   -7.841998|   -9.723072|    0.824000|    0.012159|
|          82|   -7.842835|   -9.726973|    0.824000|    0.012159|
|          83|   -7.843766|   -9.730524|    0.824000|    0.012159|
|          84|   -7.844777|   -9.733727|    0.824000|    0.012159|
|          85|   -7.845848|   -9.736593|    0.824000|    0.012159|
|          86|   -7.846951|   -9.739142|    0.824000|    0.012159|
|          87|   -7.848052|   -9.741401|    0.824000|    0.012159|
|          88|   -7.849115|   -9.743400|    0.824000|    0.012159|
|          89|   -7.850102|   -9.745175|    0.824000|    0.012159|
|          90|   -7.850981|   -9.746763|    0.824000|    0.012159|
|          91|   -7.851726|   -9.748199|    0.824000|    0.012159|
|          92|   -7.852323|   -9.749521|    0.824000|    0.012159|
|          93|   -7.852773|   -9.750765|    0.824000|    0.012159|
|          94|   -7.853089|   -9.751964|    0.824000|    0.012159|
|          95|   -7.853298|   -9.753151|    0.824000|    0.012159|
|          96|   -7.853439|   -9.754361|    0.824000|    0.012159|
|          97|   -7.853560|   -9.755623|    0.824000|    0.012159|
|          98|   -7.853713|   -9.756969|    0.824000|    0.012159|
|          99|   -7.853956|   -9.758428|    0.824000|    0.012159|
|         100|   -7.854340|   -9.760028|    0.824000|    0.012159|
|         101|   -7.854917|   -9.761795|    0.824000|    0.012159|
|         102|   -7.855728|   -9.763751|    0.824000|    0.012159|
|         103|   -7.856807|   -9.765917|    0.824000|    0.012159|
|         104|   -7.858174|   -9.768307|    0.824000|    0.012159|
|         105|   -7.859840|   -9.770932|    0.824000|    0.012159|
|         106|   -7.861799|   -9.773798|    0.824000|    0.012159|
|         107|   -7.864033|   -9.776906|    0.824000|    0.012159|
|         108|   -7.866507|   -9.780247|    0.824000|    0.012159|
|         109|   -7.869172|   -9.783812|    0.824000|    0.012159|
|         110|   -7.871965|   -9.787579|    0.824000|    0.012159|
|         111|   -7.874810|   -9.791525|    0.824000|    0.012159|
|         112|   -7.877619|   -9.795618|    0.824000|    0.012159|
|         113|   -7.880298|   -9.799824|    0.824000|    0.012159|
|         114|   -7.882746|   -9.804102|    0.824000|    0.012159|
|         115|   -7.884868|   -9.808411|    0.824000|    0.012159|
|         116|   -7.886570|   -9.812706|    0.824000|    0.012159|
|         117|   -7.887774|   -9.816944|    0.824000|    0.012159|
|         118|   -7.888417|   -9.821084|    0.824000|    0.012159|
|         119|   -7.888457|   -9.825087|    0.824000|    0.012159|
|         120|   -7.887876|   -9.828919|    0.824000|    0.012159|
|         121|   -7.886679|   -9.832551|    0.824000|    0.012159|
|         122|   -7.884894|   -9.835961|    0.824000|    0.012159|
|         123|   -7.882568|   -9.839132|    0.824000|    0.012159|
|         124|   -7.879763|   -9.842056|    0.824000|    0.012159|
|         125|   -7.876553|   -9.844730|    0.824000|    0.012159|
|         126|   -7.873015|   -9.847154|    0.824000|    0.012159|
|         127|   -7.869228|   -9.849336|    0.824000|    0.012159|
|         128|   -7.865267|   -9.851286|    0.824000|    0.012159|
|         129|   -7.861205|   -9.853020|    0.824000|    0.012159|
|         130|   -7.857101|   -9.854554|    0.824000|    0.012159|
|         131|   -7.853011|   -9.855907|    0.824000|    0.012159|
|         132|   -7.848979|   -9.857100|    0.824000|    0.012159|
|         133|   -7.845041|   -9.858156|    0.824000|    0.012159|
|         134|   -7.841225|   -9.859098|    0.824000|    0.012159|
|         135|   -7.837550|   -9.859951|    0.824000|    0.012159|
|         136|   -7.834029|   -9.860738|    0.824000|    0.012159|
|         137|   -7.830672|   -9.861485|    0.824000|    0.012159|
|         138|   -7.827479|   -9.862213|    0.824000|    0.012159|
|         139|   -7.824449|   -9.862946|    0.824000|    0.012159|
|         140|   -7.821576|   -9.863704|    0.824000|    0.012159|
|         141|   -7.818852|   -9.864502|    0.824000|    0.012159|
|         142|   -7.816263|   -9.865356|    0.824000|    0.012159|
|         143|   -7.813797|   -9.866275|    0.824000|    0.012159|
|         144|   -7.811438|   -9.867265|    0.824000|    0.012159|
|         145|   -7.809170|   -9.868327|    0.824000|    0.012159|
|         146|   -7.806976|   -9.869459|    0.824000|    0.012159|
|         147|   -7.804842|   -9.870652|    0.824000|    0.012159|
|         148|   -7.802753|   -9.871896|    0.824000|    0.012159|
|         149|   -7.800695|   -9.873177|    0.824000|    0.012159|
|         150|   -7.798659|   -9.874479|    0.824000|    0.012159|
|         151|   -7.796636|   -9.875783|    0.824000|    0.012159|
|         152|   -7.794623|   -9.877071|    0.824000|    0.012159|
|         153|   -7.792616|   -9.878324|    0.824000|    0.012159|
|         154|   -7.790617|   -9.879525|    0.824000|    0.012159|
|         155|   -7.788631|   -9.880660|    0.824000|    0.012159|
|         156|   -7.786662|   -9.881714|    0.824000|    0.012159|
|         157|   -7.784719|   -9.882680|    0.824000|    0.012159|
|         158|   -7.782810|   -9.883550|    0.824000|    0.012159|
|         159|   -7.780946|   -9.884323|    0.824000|    0.012159|
|         160|   -7.779137|   -9.884999|    0.824000|    0.012159|
|         161|   -7.777393|   -9.885583|    0.824000|    0.012159|
|         162|   -7.775723|   -9.886081|    0.824000|    0.012159|
|         163|   -7.774134|   -9.886503|    0.824000|    0.012159|
|         164|   -7.772636|   -9.886860|    0.824000|    0.012159|
|         165|   -7.771232|   -9.887165|    0.824000|    0.012159|
|         166|   -7.769927|   -9.887431|    0.824000|    0.012159|
|         167|   -7.768724|   -9.887672|    0.824000|    0.012159|
|         168|   -7.767623|   -9.887902|    0.824000|    0.012159|
|         169|   -7.766623|   -9.888135|    0.824000|    0.012159|
|         170|   -7.765723|   -9.888386|    0.824000|    0.012159|
|         171|   -7.764918|   -9.888666|    0.824000|    0.012159|
|         172|   -7.764203|   -9.888990|    0.824000|    0.012159|
|         173|   -7.763570|   -9.889371|    0.824000|    0.012159|
|         174|   -7.763013|   -9.889820|    0.824000|    0.012159|
|         175|   -7.762523|   -9.890350|    0.824000|    0.012159|
|         176|   -7.762091|   -9.890975|    0.824000|    0.012159|
|         177|   -7.761707|   -9.891705|    0.824000|    0.012159|
|         178|   -7.761363|   -9.892555|    0.824000|    0.012159|
|         179|   -7.761051|   -9.893536|    0.824000|    0.012159|
|         180|   -7.760764|   -9.894661|    0.824000|    0.012159|
|         181|   -7.760498|   -9.895943|    0.824000|    0.012159|
|         182|   -7.760252|   -9.897396|    0.824000|    0.012159|
|         183|   -7.760028|   -9.899031|    0.824000|    0.012159|
|         184|   -7.759830|   -9.900862|    0.824000|    0.012159|
|         185|   -7.759668|   -9.902900|    0.824000|    0.012159|
|         186|   -7.759555|   -9.905158|    0.824000|    0.012159|
|         187|   -7.759509|   -9.907648|    0.824000|    0.012159|
|         188|   -7.759551|   -9.910380|    0.824000|    0.012159|
|         189|   -7.759707|   -9.913363|    0.824000|    0.012159|
|         190|   -7.760003|   -9.916609|    0.824000|    0.012159|
|         191|   -7.760469|   -9.920123|    0.824000|    0.012159|
|         192|   -7.761135|   -9.923915|    0.824000|    0.012159|
|         193|   -7.762032|   -9.927989|    0.824000|    0.012159|
|         194|   -7.763188|   -9.932351|    0.824000|    0.012159|
|         195|   -7.764631|   -9.937003|    0.824000|    0.012159|
|         196|   -7.766382|   -9.941950|    0.824000|    0.012159|
|         197|   -7.768459|   -9.947190|    0.824000|    0.012159|
|         198|   -7.770874|   -9.952724|    0.824000|    0.012159|
|         199|   -7.773633|   -9.958549|    0.824000|    0.012159|
|         200|   -7.776732|   -9.964664|    0.824000|    0.012159|
|         201|   -7.780160|   -9.971062|    0.824000|    0.012159|
|         202|   -7.783896|   -9.977740|    0.824000|    0.012159|
|         203|   -7.787910|   -9.984690|    0.824000|    0.012159|
|         204|   -7.792161|   -9.991903|    0.824000|    0.012159|
|         205|   -7.796601|   -9.999373|    0.824000|    0.012159|
|         206|   -7.801169|  -10.007089|    0.824000|    0.012159|
|         207|   -7.805800|  -10.015041|    0.824000|    0.012159|
|         208|   -7.810419|  -10.023219|    0.824000|    0.012159|
|         209|   -7.814948|  -10.031610|    0.824000|    0.012159|
|         210|   -7.819308|  -10.040204|    0.824000|    0.012159|
|         211|   -7.823417|  -10.048987|    0.824000|    0.012159|
|         212|   -7.827200|  -10.057948|    0.824000|    0.012159|
|         213|   -7.830589|  -10.067071|    0.824000|    0.012159|
|         214|   -7.833527|  -10.076345|    0.824000|    0.012159|
|         215|   -7.835971|  -10.085752|    0.824000|    0.012159|
|         216|   -7.837894|  -10.095279|    0.824000|    0.012159|
|         217|   -7.839286|  -10.104907|    0.824000|    0.012159|
|         218|   -7.840158|  -10.114620|    0.824000|    0.012159|
|         219|   -7.840538|  -10.124397|    0.824000|    0.012159|
|         220|   -7.840470|  -10.134219|    0.824000|    0.012159|
|         221|   -7.840010|  -10.144062|    0.824000|    0.012159|
|         222|   -7.839229|  -10.153903|    0.824000|    0.012159|
|         223|   -7.838201|  -10.163717|    0.824000|    0.012159|
|         224|   -7.837008|  -10.173477|    0.824000|    0.012159|
|         225|   -7.835731|  -10.183156|    0.824000|    0.012159|
|         226|   -7.834448|  -10.192723|    0.824000|    0.012159|
|         227|   -7.833235|  -10.202151|    0.824000|    0.012159|
|         228|   -7.832161|  -10.211410|    0.824000|    0.012159|
|         229|   -7.831290|  -10.220470|    0.824000|    0.012159|
|         230|   -7.830673|  -10.229303|    0.824000|    0.012159|
|         231|   -7.830359|  -10.237882|    0.824000|    0.012159|
|         232|   -7.830382|  -10.246180|    0.824000|    0.012159|
|         233|   -7.830774|  -10.254176|    0.824000|    0.012159|
|         234|   -7.831553|  -10.261846|    0.824000|    0.012159|
|         235|   -7.832734|  -10.269174|    0.824000|    0.012159|
|         236|   -7.834322|  -10.276143|    0.824000|    0.012159|
|         237|   -7.836318|  -10.282741|    0.824000|    0.012159|
|         238|   -7.838715|  -10.288961|    0.824000|    0.012159|
|         239|   -7.841504|  -10.294795|    0.824000|    0.012159|
|         240|   -7.844667|  -10.300242|    0.824000|    0.012159|
|         241|   -7.848188|  -10.305303|    0.824000|    0.012159|
|         242|   -7.852042|  -10.309982|    0.824000|    0.012159|
|         243|   -7.856206|  -10.314285|    0.824000|    0.012159|
|         244|   -7.860652|  -10.318222|    0.824000|    0.012159|
|         245|   -7.865353|  -10.321806|    0.824000|    0.012159|
|         246|   -7.870278|  -10.325051|    0.824000|    0.012159|
|         247|   -7.875397|  -10.327974|    0.824000|    0.012159|
|         248|   -7.880680|  -10.330594|    0.824000|    0.012159|
|         249|   -7.886094|  -10.332931|    0.824000|    0.012159|
|         250|   -7.891610|  -10.335008|    0.824000|    0.012159|
|         251|   -7.897196|  -10.336848|    0.824000|    0.012159|
|         252|   -7.902821|  -10.338474|    0.824000|    0.012159|
|         253|   -7.908455|  -10.339914|    0.824000|    0.012159|
|         254|   -7.914066|  -10.341191|    0.824000|    0.012159|
|         255|   -7.919625|  -10.342332|    0.824000|    0.012159|
|         256|   -7.925101|  -10.343363|    0.824000|    0.012159|
|         257|   -7.930464|  -10.344310|    0.824000|    0.012159|
|         258|   -7.935684|  -10.345198|    0.824000|    0.012159|
|         259|   -7.940729|  -10.346052|    0.824000|    0.012159|
|         260|   -7.945572|  -10.346894|    0.824000|    0.012159|
|         261|   -7.950181|  -10.347747|    0.824000|    0.012159|
|         262|   -7.954529|  -10.348632|    0.824000|    0.012159|
|         263|   -7.958588|  -10.349568|    0.824000|    0.012159|
|         264|   -7.962331|  -10.350572|    0.824000|    0.012159|
|         265|   -7.965736|  -10.351657|    0.824000|    0.012159|
|         266|   -7.968780|  -10.352836|    0.824000|    0.012159|
|         267|   -7.971446|  -10.354119|    0.824000|    0.012159|
|         268|   -7.973719|  -10.355510|    0.824000|    0.012159|
|         269|   -7.975592|  -10.357012|    0.824000|    0.012159|
|         270|   -7.977060|  -10.358626|    0.824000|    0.012159|
|         271|   -7.978125|  -10.360345|    0.824000|    0.012159|
|         272|   -7.978794|  -10.362162|    0.824000|    0.012159|
|         273|   -7.979079|  -10.364064|    0.824000|    0.012159|
|         274|   -7.979001|  -10.366037|    0.824000|    0.012159|
|         275|   -7.978584|  -10.368059|    0.824000|    0.012159|
|         276|   -7.977855|  -10.370109|    0.824000|    0.012159|
|         277|   -7.976850|  -10.372161|    0.824000|    0.012159|
|         278|   -7.975604|  -10.374187|    0.824000|    0.012159|
|         279|   -7.974155|  -10.376159|    0.824000|    0.012159|
|         280|   -7.972545|  -10.378044|    0.824000|    0.012159|
|         281|   -7.970815|  -10.379815|    0.824000|    0.012159|
|         282|   -7.969004|  -10.381440|    0.824000|    0.012159|
|         283|   -7.967152|  -10.382894|    0.824000|    0.012159|
|         284|   -7.965296|  -10.384150|    0.824000|    0.012159|
|         285|   -7.963472|  -10.385190|    0.824000|    0.012159|
|         286|   -7.961711|  -10.385997|    0.824000|    0.012159|
|         287|   -7.960043|  -10.386559|    0.824000|    0.012159|
|         288|   -7.958493|  -10.386872|    0.824000|    0.012159|
|         289|   -7.957082|  -10.386937|    0.824000|    0.012159|
|         290|   -7.955830|  -10.386758|    0.824000|    0.012159|
|         291|   -7.954752|  -10.386349|    0.824000|    0.012159|
|         292|   -7.953860|  -10.385724|    0.824000|    0.012159|
|         293|   -7.953163|  -10.384904|    0.824000|    0.012159|
|         294|   -7.952668|  -10.383914|    0.824000|    0.012159|
|         295|   -7.952380|  -10.382779|    0.824000|    0.012159|
|         296|   -7.952301|  -10.381528|    0.824000|    0.012159|
|         297|   -7.952432|  -10.380187|    0.824000|    0.012159|
|         298|   -7.952772|  -10.378787|    0.824000|    0.012159|
|         299|   -7.953322|  -10.377354|    0.824000|    0.012159|
|         300|   -7.954079|  -10.375913|    0.824000|    0.012159|
|         301|   -7.955040|  -10.374490|    0.824000|    0.012159|
|         302|   -7.956205|  -10.373105|    0.824000|    0.012159|
|         303|   -7.957570|  -10.371777|    0.824000|    0.012159|
|         304|   -7.959134|  -10.370523|    0.824000|    0.012159|
|         305|   -7.960895|  -10.369355|    0.824000|    0.012159|
|         306|   -7.962851|  -10.368285|    0.824000|    0.012159|
|         307|   -7.965002|  -10.367320|    0.824000|    0.012159|
|         308|   -7.967346|  -10.366468|    0.824000|    0.012159|
|         309|   -7.969882|  -10.365731|    0.824000|    0.012159|
|         310|   -7.972609|  -10.365113|    0.824000|    0.012159|
|         311|   -7.975526|  -10.364613|    0.824000|    0.012159|
|         312|   -7.978629|  -10.364232|    0.824000|    0.012159|
|         313|   -7.981918|  -10.363968|    0.824000|    0.012159|
|         314|   -7.985386|  -10.363819|    0.824000|    0.012159|
|         315|   -7.989030|  -10.363785|    0.824000|    0.012159|
|         316|   -7.992841|  -10.363862|    0.824000|    0.012159|
|         317|   -7.996810|  -10.364049|    0.824000|    0.012159|
|         318|   -8.000927|  -10.364346|    0.824000|    0.012159|
|         319|   -8.005177|  -10.364751|    0.824000|    0.012159|
|         320|   -8.009544|  -10.365266|    0.824000|    0.012159|
|         321|   -8.014007|  -10.365891|    0.824000|    0.012159|
|         322|   -8.018544|  -10.366627|    0.824000|    0.012159|
|         323|   -8.023130|  -10.367479|    0.824000|    0.012159|
|         324|   -8.027735|  -10.368449|    0.824000|    0.012159|
|         325|   -8.032328|  -10.369543|    0.824000|    0.012159|
|         326|   -8.036874|  -10.370764|    0.824000|    0.012159|
|         327|   -8.041337|  -10.372120|    0.824000|    0.012159|
|         328|   -8.045678|  -10.373616|    0.824000|    0.012159|
|         329|   -8.049857|  -10.375258|    0.824000|    0.012159|
|         330|   -8.053834|  -10.377053|    0.824000|    0.012159|
|         331|   -8.057571|  -10.379007|    0.824000|    0.012159|
|         332|   -8.061028|  -10.381125|    0.824000|    0.012159|
|         333|   -8.064171|  -10.383413|    0.824000|    0.012159|
|         334|   -8.066968|  -10.385876|    0.824000|    0.012159|
|         335|   -8.069392|  -10.388516|    0.824000|    0.012159|
|         336|   -8.071420|  -10.391337|    0.824000|    0.012159|
|         337|   -8.073039|  -10.394339|    0.824000|    0.012159|
|         338|   -8.074239|  -10.397521|    0.824000|    0.012159|
|         339|   -8.075018|  -10.400882|    0.824000|    0.012159|
|         340|   -8.075383|  -10.404419|    0.824000|    0.012159|
|         341|   -8.075347|  -10.408124|    0.824000|    0.012159|
|         342|   -8.074929|  -10.411991|    0.824000|    0.012159|
|         343|   -8.074155|  -10.416010|    0.824000|    0.012159|
|         344|   -8.073057|  -10.420171|    0.824000|    0.012159|
|         345|   -8.071669|  -10.424459|    0.824000|    0.012159|
|         346|   -8.070030|  -10.428860|    0.824000|    0.012159|
|         347|   -8.068182|  -10.433359|    0.824000|    0.012159|
|         348|   -8.066168|  -10.437936|    0.824000|    0.012159|
|         349|   -8.064030|  -10.442574|    0.824000|    0.012159|
|         350|   -8.061812|  -10.447252|    0.824000|    0.012159|
|         351|   -8.059557|  -10.451951|    0.824000|    0.012159|
|         352|   -8.057305|  -10.456650|    0.824000|    0.012159|
|         353|   -8.055097|  -10.461329|    0.824000|    0.012159|
|         354|   -8.052968|  -10.465968|    0.824000|    0.012159|
|         355|   -8.050955|  -10.470548|    0.824000|    0.012159|
|         356|   -8.049089|  -10.475052|    0.824000|    0.012159|
|         357|   -8.047401|  -10.479464|    0.824000|    0.012159|
|         358|   -8.045917|  -10.483770|    0.824000|    0.012159|
|         359|   -8.044663|  -10.487958|    0.824000|    0.012159|
|         360|   -8.043660|  -10.492018|    0.824000|    0.012159|
|         361|   -8.042927|  -10.495944|    0.824000|    0.012159|
|         362|   -8.042484|  -10.499731|    0.824000|    0.012159|
|         363|   -8.042344|  -10.503376|    0.824000|    0.012159|
|         364|   -8.042520|  -10.506880|    0.824000|    0.012159|
|         365|   -8.043023|  -10.510245|    0.824000|    0.012159|
|         366|   -8.043861|  -10.513475|    0.824000|    0.012159|
|         367|   -8.045041|  -10.516577|    0.824000|    0.012159|
|         368|   -8.046566|  -10.519556|    0.824000|    0.012159|
|         369|   -8.048440|  -10.522421|    0.824000|    0.012159|
|         370|   -8.050661|  -10.525181|    0.824000|    0.012159|
|         371|   -8.053229|  -10.527845|    0.824000|    0.012159|
|         372|   -8.056139|  -10.530421|    0.824000|    0.012159|
|         373|   -8.059384|  -10.532919|    0.824000|    0.012159|
|         374|   -8.062956|  -10.535346|    0.824000|    0.012159|
|         375|   -8.066843|  -10.537708|    0.824000|    0.012159|
|         376|   -8.071033|  -10.540012|    0.824000|    0.012159|
|         377|   -8.075508|  -10.542262|    0.824000|    0.012159|
|         378|   -8.080250|  -10.544461|    0.824000|    0.012159|
|         379|   -8.085237|  -10.546611|    0.824000|    0.012159|
|         380|   -8.090444|  -10.548710|    0.824000|    0.012159|
|         381|   -8.095845|  -10.550758|    0.824000|    0.012159|
|         382|   -8.101409|  -10.552750|    0.824000|    0.012159|
|         383|   -8.107103|  -10.554682|    0.824000|    0.012159|
|         384|   -8.112890|  -10.556548|    0.824000|    0.012159|
|         385|   -8.118734|  -10.558338|    0.824000|    0.012159|
|         386|   -8.124592|  -10.560045|    0.824000|    0.012159|
|         387|   -8.130422|  -10.561658|    0.824000|    0.012159|
|         388|   -8.136181|  -10.563167|    0.824000|    0.012159|
|         389|   -8.141822|  -10.564560|    0.824000|    0.012159|
|         390|   -8.147299|  -10.565827|    0.824000|    0.012159|
|         391|   -8.152569|  -10.566956|    0.824000|    0.012159|
|         392|   -8.157587|  -10.567936|    0.824000|    0.012159|
|         393|   -8.162311|  -10.568757|    0.824000|    0.012159|
|         394|   -8.166703|  -10.569411|    0.824000|    0.012159|
|         395|   -8.170729|  -10.569889|    0.824000|    0.012159|
|         396|   -8.174357|  -10.570186|    0.824000|    0.012159|
|         397|   -8.177566|  -10.570296|    0.824000|    0.012159|
|         398|   -8.180336|  -10.570217|    0.824000|    0.012159|
|         399|   -8.182658|  -10.569949|    0.824000|    0.012159|
|         400|   -8.184527|  -10.569492|    0.824000|    0.012159|
|         401|   -8.185946|  -10.568850|    0.824000|    0.012159|
|         402|   -8.186927|  -10.568030|    0.824000|    0.012159|
|         403|   -8.187485|  -10.567037|    0.824000|    0.012159|
|         404|   -8.187643|  -10.565883|    0.824000|    0.012159|
|         405|   -8.187429|  -10.564578|    0.824000|    0.012159|
|         406|   -8.186875|  -10.563135|    0.824000|    0.012159|
|         407|   -8.186017|  -10.561567|    0.824000|    0.012159|
|         408|   -8.184893|  -10.559889|    0.824000|    0.012159|
|         409|   -8.183544|  -10.558118|    0.824000|    0.012159|
|         410|   -8.182011|  -10.556269|    0.824000|    0.012159|
|         411|   -8.180335|  -10.554359|    0.824000|    0.012159|
|         412|   -8.178558|  -10.552405|    0.824000|    0.012159|
|         413|   -8.176720|  -10.550422|    0.824000|    0.012159|
|         414|   -8.174861|  -10.548428|    0.824000|    0.012159|
|         415|   -8.173017|  -10.546439|    0.824000|    0.012159|
|         416|   -8.171225|  -10.544469|    0.824000|    0.012159|
|         417|   -8.169518|  -10.542532|    0.824000|    0.012159|
|         418|   -8.167927|  -10.540644|    0.824000|    0.012159|
|         419|   -8.166482|  -10.538817|    0.824000|    0.012159|
|         420|   -8.165210|  -10.537063|    0.824000|    0.012159|
|         421|   -8.164136|  -10.535394|    0.824000|    0.012159|
|         422|   -8.163282|  -10.533820|    0.824000|    0.012159|
|         423|   -8.162668|  -10.532350|    0.824000|    0.012159|
|         424|   -8.162313|  -10.530993|    0.824000|    0.012159|
|         425|   -8.162232|  -10.529757|    0.824000|    0.012159|
|         426|   -8.162441|  -10.528650|    0.824000|    0.012159|
|         427|   -8.162950|  -10.527676|    0.824000|    0.012159|
|         428|   -8.163770|  -10.526842|    0.824000|    0.012159|
|         429|   -8.164907|  -10.526152|    0.824000|    0.012159|
|         430|   -8.166369|  -10.525610|    0.824000|    0.012159|
|         431|   -8.168158|  -10.525220|    0.824000|    0.012159|
|         432|   -8.170276|  -10.524983|    0.824000|    0.012159|
|         433|   -8.172722|  -10.524902|    0.824000|    0.012159|
|         434|   -8.175492|  -10.524978|    0.824000|    0.012159|
|         435|   -8.178580|  -10.525212|    0.824000|    0.012159|
|         436|   -8.181978|  -10.525604|    0.824000|    0.012159|
|         437|   -8.185674|  -10.526153|    0.824000|    0.012159|
|         438|   -8.189655|  -10.526858|    0.824000|    0.012159|
|         439|   -8.193901|  -10.527719|    0.824000|    0.012159|
|         440|   -8.198394|  -10.528733|    0.824000|    0.012159|
|         441|   -8.203108|  -10.529898|    0.824000|    0.012159|
|         442|   -8.208017|  -10.531211|    0.824000|    0.012159|
|         443|   -8.213089|  -10.532669|    0.824000|    0.012159|
|         444|   -8.218288|  -10.534267|    0.824000|    0.012159|
|         445|   -8.223578|  -10.536004|    0.824000|    0.012159|
|         446|   -8.228917|  -10.537872|    0.824000|    0.012159|
|         447|   -8.234260|  -10.539870|    0.824000|    0.012159|
|         448|   -8.239561|  -10.541990|    0.824000|    0.012159|
|         449|   -8.244770|  -10.544229|    0.824000|    0.012159|
|         450|   -8.249837|  -10.546580|    0.824000|    0.012159|
|         451|   -8.254712|  -10.549038|    0.824000|    0.012159|
|         452|   -8.259345|  -10.551598|    0.824000|    0.012159|
|         453|   -8.263689|  -10.554253|    0.824000|    0.012159|
|         454|   -8.267699|  -10.556998|    0.824000|    0.012159|
|         455|   -8.271335|  -10.559827|    0.824000|    0.012159|
|         456|   -8.274562|  -10.562734|    0.824000|    0.012159|
|         457|   -8.277355|  -10.565714|    0.824000|    0.012159|
|         458|   -8.279694|  -10.568760|    0.824000|    0.012159|
|         459|   -8.281568|  -10.571867|    0.824000|    0.012159|
|         460|   -8.282975|  -10.575032|    0.824000|    0.012159|
|         461|   -8.283923|  -10.578248|    0.824000|    0.012159|
|         462|   -8.284430|  -10.581511|    0.824000|    0.012159|
|         463|   -8.284518|  -10.584818|    0.824000|    0.012159|
|         464|   -8.284221|  -10.588166|    0.824000|    0.012159|
|         465|   -8.283577|  -10.591550|    0.824000|    0.012159|
|         466|   -8.282628|  -10.594970|    0.824000|    0.012159|
|         467|   -8.281423|  -10.598423|    0.824000|    0.012159|
|         468|   -8.280012|  -10.601907|    0.824000|    0.012159|
|         469|   -8.278443|  -10.605423|    0.824000|    0.012159|
|         470|   -8.276770|  -10.608971|    0.824000|    0.012159|
|         471|   -8.275042|  -10.612551|    0.824000|    0.012159|
|         472|   -8.273308|  -10.616163|    0.824000|    0.012159|
|         473|   -8.271613|  -10.619811|    0.824000|    0.012159|
|         474|   -8.270002|  -10.623495|    0.824000|    0.012159|
|         475|   -8.268516|  -10.627220|    0.824000|    0.012159|
|         476|   -8.267190|  -10.630986|    0.824000|    0.012159|
|         477|   -8.266059|  -10.634799|    0.824000|    0.012159|
|         478|   -8.265152|  -10.638661|    0.824000|    0.012159|
|         479|   -8.264497|  -10.642575|    0.824000|    0.012159|
|         480|   -8.264116|  -10.646546|    0.824000|    0.012159|
|         481|   -8.264028|  -10.650576|    0.824000|    0.012159|
|         482|   -8.264250|  -10.654670|    0.824000|    0.012159|
|         483|   -8.264795|  -10.658829|    0.824000|    0.012159|
|         484|   -8.265672|  -10.663058|    0.824000|    0.012159|
|         485|   -8.266889|  -10.667358|    0.824000|    0.012159|
|         486|   -8.268449|  -10.671730|    0.824000|    0.012159|
|         487|   -8.270353|  -10.676176|    0.824000|    0.012159|
|         488|   -8.272598|  -10.680695|    0.824000|    0.012159|
|         489|   -8.275180|  -10.685288|    0.824000|    0.012159|
|         490|   -8.278090|  -10.689952|    0.824000|    0.012159|
|         491|   -8.281316|  -10.694686|    0.824000|    0.012159|
|         492|   -8.284844|  -10.699485|    0.824000|    0.012159|
|         493|   -8.288657|  -10.704345|    0.824000|    0.012159|
|         494|   -8.292732|  -10.709262|    0.824000|    0.012159|
|         495|   -8.297045|  -10.714227|    0.824000|    0.012159|
|         496|   -8.301570|  -10.719233|    0.824000|    0.012159|
|         497|   -8.306272|  -10.724273|    0.824000|    0.012159|
|         498|   -8.311120|  -10.729335|    0.824000|    0.012159|
|         499|   -8.316073|  -10.734410|    0.824000|    0.012159|
|         500|   -8.321090|  -10.739486|    0.824000|    0.012159|
|         501|   -8.326128|  -10.744552|    0.824000|    0.012159|
|         502|   -8.331141|  -10.749594|    0.824000|    0.012159|
|         503|   -8.336079|  -10.754600|    0.824000|    0.012159|
|         504|   -8.340893|  -10.759555|    0.824000|    0.012159|
|         505|   -8.345535|  -10.764448|    0.824000|    0.012159|
|         506|   -8.349956|  -10.769264|    0.824000|    0.012159|
|         507|   -8.354107|  -10.773991|    0.824000|    0.012159|
|         508|   -8.357946|  -10.778616|    0.824000|    0.012159|
|         509|   -8.361434|  -10.783127|    0.824000|    0.012159|
|         510|   -8.364537|  -10.787514|    0.824000|    0.012159|
|         511|   -8.367227|  -10.791766|    0.824000|    0.012159|
|         512|   -8.369486|  -10.795874|    0.824000|    0.012159|
|         513|   -8.371302|  -10.799831|    0.824000|    0.012159|
|         514|   -8.372672|  -10.803631|    0.824000|    0.012159|
|         515|   -8.373602|  -10.807270|    0.824000|    0.012159|
|         516|   -8.374108|  -10.810744|    0.824000|    0.012159|
|         517|   -8.374212|  -10.814052|    0.824000|    0.012159|
|         518|   -8.373944|  -10.817194|    0.824000|    0.012159|
|         519|   -8.373340|  -10.820171|    0.824000|    0.012159|
|         520|   -8.372441|  -10.822987|    0.824000|    0.012159|
|         521|   -8.371293|  -10.825645|    0.824000|    0.012159|
|         522|   -8.369943|  -10.828150|    0.824000|    0.012159|
|         523|   -8.368441|  -10.830510|    0.824000|    0.012159|
|         524|   -8.366836|  -10.832730|    0.824000|    0.012159|
|         525|   -8.365177|  -10.834819|    0.824000|    0.012159|
|         526|   -8.363513|  -10.836784|    0.824000|    0.012159|
|         527|   -8.361889|  -10.838634|    0.824000|    0.012159|
|         528|   -8.360349|  -10.840378|    0.824000|    0.012159|
|         529|   -8.358933|  -10.842025|    0.824000|    0.012159|
|         530|   -8.357680|  -10.843582|    0.824000|    0.012159|
|         531|   -8.356622|  -10.845059|    0.824000|    0.012159|
|         532|   -8.355792|  -10.846463|    0.824000|    0.012159|
|         533|   -8.355217|  -10.847802|    0.824000|    0.012159|
|         534|   -8.354922|  -10.849084|    0.824000|    0.012159|
|         535|   -8.354927|  -10.850313|    0.824000|    0.012159|
|         536|   -8.355251|  -10.851498|    0.824000|    0.012159|
|         537|   -8.355909|  -10.852643|    0.824000|    0.012159|
|         538|   -8.356913|  -10.853752|    0.824000|    0.012159|
|         539|   -8.358273|  -10.854832|    0.824000|    0.012159|
|         540|   -8.359993|  -10.855884|    0.824000|    0.012159|
|         541|   -8.362079|  -10.856912|    0.824000|    0.012159|
|         542|   -8.364529|  -10.857920|    0.824000|    0.012159|
|         543|   -8.367343|  -10.858909|    0.824000|    0.012159|
|         544|   -8.370514|  -10.859880|    0.824000|    0.012159|
|         545|   -8.374035|  -10.860836|    0.824000|    0.012159|
|         546|   -8.377894|  -10.861777|    0.824000|    0.012159|
|         547|   -8.382076|  -10.862704|    0.824000|    0.012159|
|         548|   -8.386563|  -10.863617|    0.824000|    0.012159|
|         549|   -8.391333|  -10.864516|    0.824000|    0.012159|
|         550|   -8.396362|  -10.865403|    0.824000|    0.012159|
|         551|   -8.401620|  -10.866276|    0.824000|    0.012159|
|         552|   -8.407073|  -10.867135|    0.824000|    0.012159|
|         553|   -8.412685|  -10.867981|    0.824000|    0.012159|
|         554|   -8.418415|  -10.868814|    0.824000|    0.012159|
|         555|   -8.424218|  -10.869632|    0.824000|    0.012159|
|         556|   -8.430047|  -10.870437|    0.824000|    0.012159|
|         557|   -8.435851|  -10.871229|    0.824000|    0.012159|
|         558|   -8.441575|  -10.872008|    0.824000|    0.012159|
|         559|   -8.447167|  -10.872775|    0.824000|    0.012159|
|         560|   -8.452569|  -10.873530|    0.824000|    0.012159|
|         561|   -8.457727|  -10.874275|    0.824000|    0.012159|
|         562|   -8.462588|  -10.875011|    0.824000|    0.012159|
|         563|   -8.467104|  -10.875740|    0.824000|    0.012159|
|         564|   -8.471228|  -10.876463|    0.824000|    0.012159|
|         565|   -8.474924|  -10.877183|    0.824000|    0.012159|
|         566|   -8.478161|  -10.877902|    0.824000|    0.012159|
|         567|   -8.480918|  -10.878624|    0.824000|    0.012159|
|         568|   -8.483185|  -10.879351|    0.824000|    0.012159|
|         569|   -8.484958|  -10.880086|    0.824000|    0.012159|
|         570|   -8.486249|  -10.880834|    0.824000|    0.012159|
|         571|   -8.487075|  -10.881598|    0.824000|    0.012159|
|         572|   -8.487467|  -10.882383|    0.824000|    0.012159|
|         573|   -8.487461|  -10.883194|    0.824000|    0.012159|
|         574|   -8.487101|  -10.884033|    0.824000|    0.012159|
|         575|   -8.486436|  -10.884908|    0.824000|    0.012159|
|         576|   -8.485522|  -10.885822|    0.824000|    0.012159|
|         577|   -8.484413|  -10.886781|    0.824000|    0.012159|
|         578|   -8.483167|  -10.887791|    0.824000|    0.012159|
|         579|   -8.481842|  -10.888856|    0.824000|    0.012159|
|         580|   -8.480493|  -10.889983|    0.824000|    0.012159|
|         581|   -8.479176|  -10.891176|    0.824000|    0.012159|
|         582|   -8.477941|  -10.892441|    0.824000|    0.012159|
|         583|   -8.476837|  -10.893784|    0.824000|    0.012159|
|         584|   -8.475908|  -10.895209|    0.824000|    0.012159|
|         585|   -8.475196|  -10.896723|    0.824000|    0.012159|
|         586|   -8.474737|  -10.898329|    0.824000|    0.012159|
|         587|   -8.474565|  -10.900034|    0.824000|    0.012159|
|         588|   -8.474709|  -10.901840|    0.824000|    0.012159|
|         589|   -8.475195|  -10.903753|    0.824000|    0.012159|
|         590|   -8.476044|  -10.905777|    0.824000|    0.012159|
|         591|   -8.477277|  -10.907914|    0.824000|    0.012159|
|         592|   -8.478908|  -10.910167|    0.824000|    0.012159|
|         593|   -8.480950|  -10.912540|    0.824000|    0.012159|
|         594|   -8.483411|  -10.915034|    0.824000|    0.012159|
|         595|   -8.486298|  -10.917649|    0.824000|    0.012159|
|         596|   -8.489614|  -10.920388|    0.824000|    0.012159|
|         597|   -8.493359|  -10.923250|    0.824000|    0.012159|
|         598|   -8.497532|  -10.926233|    0.824000|    0.012159|
|         599|   -8.502125|  -10.929337|    0.824000|    0.012159|
|         600|   -8.507129|  -10.932559|    0.824000|    0.012159|
|         601|   -8.512534|  -10.935897|    0.824000|    0.012159|
|         602|   -8.518321|  -10.939345|    0.824000|    0.012159|
|         603|   -8.524472|  -10.942899|    0.824000|    0.012159|
|         604|   -8.530963|  -10.946553|    0.824000|    0.012159|
|         605|   -8.537767|  -10.950301|    0.824000|    0.012159|
|         606|   -8.544850|  -10.954135|    0.824000|    0.012159|
|         607|   -8.552177|  -10.958046|    0.824000|    0.012159|
|         608|   -8.559706|  -10.962026|    0.824000|    0.012159|
|         609|   -8.567391|  -10.966065|    0.824000|    0.012159|
|         610|   -8.575178|  -10.970151|    0.824000|    0.012159|
|         611|   -8.583015|  -10.974273|    0.824000|    0.012159|
|         612|   -8.590839|  -10.978421|    0.824000|    0.012159|
|         613|   -8.598588|  -10.982580|    0.824000|    0.012159|
|         614|   -8.606196|  -10.986740|    0.824000|    0.012159|
|         615|   -8.613592|  -10.990887|    0.824000|    0.012159|
|         616|   -8.620710|  -10.995009|    0.824000|    0.012159|
|         617|   -8.627484|  -10.999093|    0.824000|    0.012159|
|         618|   -8.633849|  -11.003127|    0.824000|    0.012159|
|         619|   -8.639748|  -11.007100|    0.824000|    0.012159|
|         620|   -8.645131|  -11.011001|    0.824000|    0.012159|
|         621|   -8.649957|  -11.014819|    0.824000|    0.012159|
|         622|   -8.654197|  -11.018547|    0.824000|    0.012159|
|         623|   -8.657834|  -11.022176|    0.824000|    0.012159|
|         624|   -8.660864|  -11.025700|    0.824000|    0.012159|
|         625|   -8.663296|  -11.029114|    0.824000|    0.012159|
|         626|   -8.665155|  -11.032415|    0.824000|    0.012159|
|         627|   -8.666475|  -11.035602|    0.824000|    0.012159|
|         628|   -8.667302|  -11.038674|    0.824000|    0.012159|
|         629|   -8.667690|  -11.041632|    0.824000|    0.012159|
|         630|   -8.667701|  -11.044481|    0.824000|    0.012159|
|         631|   -8.667402|  -11.047225|    0.824000|    0.012159|
|         632|   -8.666861|  -11.049870|    0.824000|    0.012159|
|         633|   -8.666147|  -11.052423|    0.824000|    0.012159|
|         634|   -8.665332|  -11.054893|    0.824000|    0.012159|
|         635|   -8.664480|  -11.057291|    0.824000|    0.012159|
|         636|   -8.663657|  -11.059625|    0.824000|    0.012159|
|         637|   -8.662922|  -11.061907|    0.824000|    0.012159|
|         638|   -8.662331|  -11.064150|    0.824000|    0.012159|
|         639|   -8.661935|  -11.066364|    0.824000|    0.012159|
|         640|   -8.661782|  -11.068562|    0.824000|    0.012159|
|         641|   -8.661910|  -11.070755|    0.824000|    0.012159|
|         642|   -8.662359|  -11.072955|    0.824000|    0.012159|
|         643|   -8.663158|  -11.075173|    0.824000|    0.012159|
|         644|   -8.664336|  -11.077421|    0.824000|    0.012159|
|         645|   -8.665916|  -11.079706|    0.824000|    0.012159|
|         646|   -8.667918|  -11.082040|    0.824000|    0.012159|
|         647|   -8.670357|  -11.084429|    0.824000|    0.012159|
|         648|   -8.673245|  -11.086882|    0.824000|    0.012159|
|         649|   -8.676589|  -11.089404|    0.824000|    0.012159|
|         650|   -8.680397|  -11.092000|    0.824000|    0.012159|
|         651|   -8.684669|  -11.094674|    0.824000|    0.012159|
|         652|   -8.689403|  -11.097428|    0.824000|    0.012159|
|         653|   -8.694593|  -11.100263|    0.824000|    0.012159|
|         654|   -8.700231|  -11.103180|    0.824000|    0.012159|
|         655|   -8.706306|  -11.106176|    0.824000|    0.012159|
|         656|   -8.712800|  -11.109248|    0.824000|    0.012159|
|         657|   -8.719692|  -11.112392|    0.824000|    0.012159|
|         658|   -8.726958|  -11.115602|    0.824000|    0.012159|
|         659|   -8.734565|  -11.118871|    0.824000|    0.012159|
|         660|   -8.742482|  -11.122189|    0.824000|    0.012159|
|         661|   -8.750668|  -11.125548|    0.824000|    0.012159|
|         662|   -8.759077|  -11.128936|    0.824000|    0.012159|
|         663|   -8.767659|  -11.132340|    0.824000|    0.012159|
|         664|   -8.776356|  -11.135747|    0.824000|    0.012159|
|         665|   -8.785107|  -11.139143|    0.824000|    0.012159|
|         666|   -8.793847|  -11.142511|    0.824000|    0.012159|
|         667|   -8.802502|  -11.145837|    0.824000|    0.012159|
|         668|   -8.811000|  -11.149104|    0.824000|    0.012159|
|         669|   -8.819266|  -11.152295|    0.824000|    0.012159|
|         670|   -8.827226|  -11.155394|    0.824000|    0.012159|
|         671|   -8.834802|  -11.158385|    0.824000|    0.012159|
|         672|   -8.841928|  -11.161251|    0.824000|    0.012159|
|         673|   -8.848543|  -11.163978|    0.824000|    0.012159|
|         674|   -8.854590|  -11.166551|    0.824000|    0.012159|
|         675|   -8.860032|  -11.168960|    0.824000|    0.012159|
|         676|   -8.864838|  -11.171192|    0.824000|    0.012159|
|         677|   -8.868994|  -11.173240|    0.824000|    0.012159|
|         678|   -8.872503|  -11.175096|    0.824000|    0.012159|
|         679|   -8.875382|  -11.176757|    0.824000|    0.012159|
|         680|   -8.877660|  -11.178220|    0.824000|    0.012159|
|         681|   -8.879385|  -11.179486|    0.824000|    0.012159|
|         682|   -8.880609|  -11.180558|    0.824000|    0.012159|
|         683|   -8.881395|  -11.181442|    0.824000|    0.012159|
|         684|   -8.881813|  -11.182146|    0.824000|    0.012159|
|         685|   -8.881938|  -11.182680|    0.824000|    0.012159|
|         686|   -8.881846|  -11.183056|    0.824000|    0.012159|
|         687|   -8.881607|  -11.183289|    0.824000|    0.012159|
|         688|   -8.881297|  -11.183395|    0.824000|    0.012159|
|         689|   -8.880983|  -11.183390|    0.824000|    0.012159|
|         690|   -8.880727|  -11.183292|    0.824000|    0.012159|
|         691|   -8.880589|  -11.183120|    0.824000|    0.012159|
|         692|   -8.880621|  -11.182894|    0.824000|    0.012159|
|         693|   -8.880869|  -11.182631|    0.824000|    0.012159|
|         694|   -8.881374|  -11.182353|    0.824000|    0.012159|
|         695|   -8.882169|  -11.182076|    0.824000|    0.012159|
|         696|   -8.883282|  -11.181819|    0.824000|    0.012159|
|         697|   -8.884735|  -11.181600|    0.824000|    0.012159|
|         698|   -8.886547|  -11.181433|    0.824000|    0.012159|
|         699|   -8.888726|  -11.181335|    0.824000|    0.012159|
|         700|   -8.891278|  -11.181318|    0.824000|    0.012159|
|         701|   -8.894205|  -11.181395|    0.824000|    0.012159|
|         702|   -8.897504|  -11.181577|    0.824000|    0.012159|
|         703|   -8.901162|  -11.181871|    0.824000|    0.012159|
|         704|   -8.905167|  -11.182286|    0.824000|    0.012159|
|         705|   -8.909499|  -11.182827|    0.824000|    0.012159|
|         706|   -8.914134|  -11.183497|    0.824000|    0.012159|
|         707|   -8.919040|  -11.184299|    0.824000|    0.012159|
|         708|   -8.924185|  -11.185233|    0.824000|    0.012159|
|         709|   -8.929529|  -11.186296|    0.824000|    0.012159|
|         710|   -8.935026|  -11.187486|    0.824000|    0.012159|
|         711|   -8.940631|  -11.188796|    0.824000|    0.012159|
|         712|   -8.946287|  -11.190221|    0.824000|    0.012159|
|         713|   -8.951939|  -11.191751|    0.824000|    0.012159|
|         714|   -8.957531|  -11.193375|    0.824000|    0.012159|
|         715|   -8.962998|  -11.195083|    0.824000|    0.012159|
|         716|   -8.968282|  -11.196861|    0.824000|    0.012159|
|         717|   -8.973318|  -11.198693|    0.824000|    0.012159|
|         718|   -8.978055|  -11.200564|    0.824000|    0.012159|
|         719|   -8.982433|  -11.202458|    0.824000|    0.012159|
|         720|   -8.986405|  -11.204356|    0.824000|    0.012159|
|         721|   -8.989931|  -11.206241|    0.824000|    0.012159|
|         722|   -8.992979|  -11.208094|    0.824000|    0.012159|
|         723|   -8.995527|  -11.209897|    0.824000|    0.012159|
|         724|   -8.997563|  -11.211631|    0.824000|    0.012159|
|         725|   -8.999091|  -11.213280|    0.824000|    0.012159|
|         726|   -9.000119|  -11.214825|    0.824000|    0.012159|
|         727|   -9.000670|  -11.216253|    0.824000|    0.012159|
|         728|   -9.000776|  -11.217549|    0.824000|    0.012159|
|         729|   -9.000477|  -11.218701|    0.824000|    0.012159|
|         730|   -8.999819|  -11.219700|    0.824000|    0.012159|
|         731|   -8.998855|  -11.220537|    0.824000|    0.012159|
|         732|   -8.997640|  -11.221208|    0.824000|    0.012159|
|         733|   -8.996226|  -11.221711|    0.824000|    0.012159|
|         734|   -8.994675|  -11.222045|    0.824000|    0.012159|
|         735|   -8.993042|  -11.222215|    0.824000|    0.012159|
|         736|   -8.991377|  -11.222225|    0.824000|    0.012159|
|         737|   -8.989731|  -11.222083|    0.824000|    0.012159|
|         738|   -8.988151|  -11.221802|    0.824000|    0.012159|
|         739|   -8.986678|  -11.221392|    0.824000|    0.012159|
|         740|   -8.985349|  -11.220868|    0.824000|    0.012159|
|         741|   -8.984196|  -11.220248|    0.824000|    0.012159|
|         742|   -8.983245|  -11.219548|    0.824000|    0.012159|
|         743|   -8.982519|  -11.218787|    0.824000|    0.012159|
|         744|   -8.982036|  -11.217984|    0.824000|    0.012159|
|         745|   -8.981809|  -11.217158|    0.824000|    0.012159|
|         746|   -8.981842|  -11.216330|    0.824000|    0.012159|
|         747|   -8.982144|  -11.215518|    0.824000|    0.012159|
|         748|   -8.982707|  -11.214742|    0.824000|    0.012159|
|         749|   -8.983531|  -11.214019|    0.824000|    0.012159|
|         750|   -8.984604|  -11.213369|    0.824000|    0.012159|
|         751|   -8.985912|  -11.212806|    0.824000|    0.012159|
|         752|   -8.987439|  -11.212346|    0.824000|    0.012159|
|         753|   -8.989162|  -11.212003|    0.824000|    0.012159|
|         754|   -8.991058|  -11.211790|    0.824000|    0.012159|
|         755|   -8.993097|  -11.211718|    0.824000|    0.012159|
|         756|   -8.995249|  -11.211796|    0.824000|    0.012159|
|         757|   -8.997482|  -11.212032|    0.824000|    0.012159|
|         758|   -8.999757|  -11.212433|    0.824000|    0.012159|
|         759|   -9.002036|  -11.213003|    0.824000|    0.012159|
|         760|   -9.004282|  -11.213744|    0.824000|    0.012159|
|         761|   -9.006458|  -11.214658|    0.824000|    0.012159|
|         762|   -9.008523|  -11.215744|    0.824000|    0.012159|
|         763|   -9.010440|  -11.216999|    0.824000|    0.012159|
|         764|   -9.012171|  -11.218419|    0.824000|    0.012159|
|         765|   -9.013687|  -11.219998|    0.824000|    0.012159|
|         766|   -9.014959|  -11.221726|    0.824000|    0.012159|
|         767|   -9.015959|  -11.223596|    0.824000|    0.012159|
|         768|   -9.016672|  -11.225593|    0.824000|    0.012159|
|         769|   -9.017084|  -11.227705|    0.824000|    0.012159|
|         770|   -9.017189|  -11.229917|    0.824000|    0.012159|
|         771|   -9.016987|  -11.232211|    0.824000|    0.012159|
|         772|   -9.016485|  -11.234568|    0.824000|    0.012159|
|         773|   -9.015695|  -11.236968|    0.824000|    0.012159|
|         774|   -9.014636|  -11.239390|    0.824000|    0.012159|
|         775|   -9.013332|  -11.241811|    0.824000|    0.012159|
|         776|   -9.011811|  -11.244206|    0.824000|    0.012159|
|         777|   -9.010105|  -11.246553|    0.824000|    0.012159|
|         778|   -9.008249|  -11.248825|    0.824000|    0.012159|
|         779|   -9.006280|  -11.250998|    0.824000|    0.012159|
|         780|   -9.004237|  -11.253047|    0.824000|    0.012159|
|         781|   -9.002158|  -11.254949|    0.824000|    0.012159|
|         782|   -9.000080|  -11.256681|    0.824000|    0.012159|
|         783|   -8.998041|  -11.258222|    0.824000|    0.012159|
|         784|   -8.996077|  -11.259553|    0.824000|    0.012159|
|         785|   -8.994222|  -11.260658|    0.824000|    0.012159|
|         786|   -8.992507|  -11.261521|    0.824000|    0.012159|
|         787|   -8.990961|  -11.262133|    0.824000|    0.012159|
|         788|   -8.989612|  -11.262486|    0.824000|    0.012159|
|         789|   -8.988483|  -11.262575|    0.824000|    0.012159|
|         790|   -8.987593|  -11.262401|    0.824000|    0.012159|
|         791|   -8.986961|  -11.261965|    0.824000|    0.012159|
|         792|   -8.986605|  -11.261274|    0.824000|    0.012159|
|         793|   -8.986534|  -11.260337|    0.824000|    0.012159|
|         794|   -8.986757|  -11.259168|    0.824000|    0.012159|
|         795|   -8.987282|  -11.257781|    0.824000|    0.012159|
|         796|   -8.988110|  -11.256194|    0.824000|    0.012159|
|         797|   -8.989246|  -11.254426|    0.824000|    0.012159|
|         798|   -8.990684|  -11.252498|    0.824000|    0.012159|
|         799|   -8.992420|  -11.250432|    0.824000|    0.012159|
|         800|   -8.994446|  -11.248251|    0.824000|    0.012159|
|         801|   -8.996750|  -11.245977|    0.824000|    0.012159|
|         802|   -8.999320|  -11.243633|    0.824000|    0.012159|
|         803|   -9.002138|  -11.241243|    0.824000|    0.012159|
|         804|   -9.005183|  -11.238826|    0.824000|    0.012159|
|         805|   -9.008433|  -11.236405|    0.824000|    0.012159|
|         806|   -9.011861|  -11.233998|    0.824000|    0.012159|
|         807|   -9.015438|  -11.231625|    0.824000|    0.012159|
|         808|   -9.019133|  -11.229301|    0.824000|    0.012159|
|         809|   -9.022911|  -11.227044|    0.824000|    0.012159|
|         810|   -9.026735|  -11.224866|    0.824000|    0.012159|
|         811|   -9.030563|  -11.222780|    0.824000|    0.012159|
|         812|   -9.034360|  -11.220797|    0.824000|    0.012159|
|         813|   -9.038081|  -11.218926|    0.824000|    0.012159|
|         814|   -9.041683|  -11.217175|    0.824000|    0.012159|
|         815|   -9.045122|  -11.215550|    0.824000|    0.012159|
|         816|   -9.048362|  -11.214056|    0.824000|    0.012159|
|         817|   -9.051361|  -11.212697|    0.824000|    0.012159|
|         818|   -9.054083|  -11.211474|    0.824000|    0.012159|
|         819|   -9.056499|  -11.210389|    0.824000|    0.012159|
|         820|   -9.058579|  -11.209442|    0.824000|    0.012159|
|         821|   -9.060302|  -11.208631|    0.824000|    0.012159|
|         822|   -9.061656|  -11.207954|    0.824000|    0.012159|
|         823|   -9.062627|  -11.207409|    0.824000|    0.012159|
|         824|   -9.063220|  -11.206991|    0.824000|    0.012159|
|         825|   -9.063437|  -11.206695|    0.824000|    0.012159|
|         826|   -9.063290|  -11.206518|    0.824000|    0.012159|
|         827|   -9.062802|  -11.206453|    0.824000|    0.012159|
|         828|   -9.061995|  -11.206493|    0.824000|    0.012159|
|         829|   -9.060900|  -11.206634|    0.824000|    0.012159|
|         830|   -9.059550|  -11.206868|    0.824000|    0.012159|
|         831|   -9.057984|  -11.207189|    0.824000|    0.012159|
|         832|   -9.056243|  -11.207589|    0.824000|    0.012159|
|         833|   -9.054366|  -11.208063|    0.824000|    0.012159|
|         834|   -9.052397|  -11.208603|    0.824000|    0.012159|
|         835|   -9.050374|  -11.209204|    0.824000|    0.012159|
|         836|   -9.048344|  -11.209859|    0.824000|    0.012159|
|         837|   -9.046343|  -11.210564|    0.824000|    0.012159|
|         838|   -9.044409|  -11.211312|    0.824000|    0.012159|
|         839|   -9.042580|  -11.212100|    0.824000|    0.012159|
|         840|   -9.040886|  -11.212924|    0.824000|    0.012159|
|         841|   -9.039361|  -11.213780|    0.824000|    0.012159|
|         842|   -9.038031|  -11.214665|    0.824000|    0.012159|
|         843|   -9.036924|  -11.215579|    0.824000|    0.012159|
|         844|   -9.036062|  -11.216520|    0.824000|    0.012159|
|         845|   -9.035466|  -11.217487|    0.824000|    0.012159|
|         846|   -9.035153|  -11.218481|    0.824000|    0.012159|
|         847|   -9.035140|  -11.219503|    0.824000|    0.012159|
|         848|   -9.035438|  -11.220554|    0.824000|    0.012159|
|         849|   -9.036060|  -11.221637|    0.824000|    0.012159|
|         850|   -9.037013|  -11.222754|    0.824000|    0.012159|
|         851|   -9.038306|  -11.223909|    0.824000|    0.012159|
|         852|   -9.039941|  -11.225106|    0.824000|    0.012159|
|         853|   -9.041921|  -11.226349|    0.824000|    0.012159|
|         854|   -9.044246|  -11.227643|    0.824000|    0.012159|
|         855|   -9.046915|  -11.228991|    0.824000|    0.012159|
|         856|   -9.049923|  -11.230400|    0.824000|    0.012159|
|         857|   -9.053264|  -11.231874|    0.824000|    0.012159|
|         858|   -9.056929|  -11.233417|    0.824000|    0.012159|
|         859|   -9.060908|  -11.235035|    0.824000|    0.012159|
|         860|   -9.065188|  -11.236732|    0.824000|    0.012159|
|         861|   -9.069755|  -11.238513|    0.824000|    0.012159|
|         862|   -9.074587|  -11.240381|    0.824000|    0.012159|
|         863|   -9.079666|  -11.242340|    0.824000|    0.012159|
|         864|   -9.084967|  -11.244393|    0.824001|    0.012159|
|         865|   -9.090461|  -11.246542|    0.824001|    0.012159|
|         866|   -9.096122|  -11.248789|    0.824001|    0.012159|
|         867|   -9.101912|  -11.251135|    0.824001|    0.012159|
|         868|   -9.107800|  -11.253581|    0.824001|    0.012159|
|         869|   -9.113743|  -11.256126|    0.824001|    0.012159|
|         870|   -9.119701|  -11.258769|    0.824001|    0.012159|
|         871|   -9.125631|  -11.261508|    0.824001|    0.012159|
|         872|   -9.131485|  -11.264340|    0.824001|    0.012159|
|         873|   -9.137214|  -11.267260|    0.824001|    0.012159|
|         874|   -9.142771|  -11.270264|    0.824001|    0.012159|
|         875|   -9.148109|  -11.273345|    0.824001|    0.012159|
|         876|   -9.153181|  -11.276498|    0.824001|    0.012159|
|         877|   -9.157937|  -11.279713|    0.824001|    0.012159|
|         878|   -9.162342|  -11.282982|    0.824001|    0.012159|
|         879|   -9.166355|  -11.286295|    0.824001|    0.012159|
|         880|   -9.169942|  -11.289642|    0.824001|    0.012159|
|         881|   -9.173081|  -11.293011|    0.824001|    0.012159|
|         882|   -9.175752|  -11.296390|    0.824001|    0.012159|
|         883|   -9.177947|  -11.299765|    0.824001|    0.012159|
|         884|   -9.179661|  -11.303123|    0.824001|    0.012159|
|         885|   -9.180904|  -11.306450|    0.824001|    0.012159|
|         886|   -9.181689|  -11.309732|    0.824001|    0.012159|
|         887|   -9.182038|  -11.312954|    0.824001|    0.012159|
|         888|   -9.181981|  -11.316102|    0.824001|    0.012159|
|         889|   -9.181553|  -11.319161|    0.824001|    0.012159|
|         890|   -9.180793|  -11.322117|    0.824001|    0.012159|
|         891|   -9.179748|  -11.324957|    0.824001|    0.012159|
|         892|   -9.178462|  -11.327669|    0.824001|    0.012159|
|         893|   -9.176983|  -11.330239|    0.824001|    0.012159|
|         894|   -9.175357|  -11.332659|    0.824001|    0.012159|
|         895|   -9.173635|  -11.334918|    0.824001|    0.012159|
|         896|   -9.171861|  -11.337010|    0.824001|    0.012159|
|         897|   -9.170081|  -11.338927|    0.824001|    0.012159|
|         898|   -9.168337|  -11.340665|    0.824001|    0.012159|
|         899|   -9.166670|  -11.342222|    0.824001|    0.012159|
|         900|   -9.165115|  -11.343597|    0.824001|    0.012159|
|         901|   -9.163705|  -11.344791|    0.824001|    0.012159|
+-----------------------------------------------------------------------+
|Fixed CL Mode                           |Value                         |
+-----------------------------------------------------------------------+
|Current CL                              |0.824001                      |
|Target CL                               |0.824                         |
|Previous AOA                            |2.78081                       |
|Changed AoA by                          |-2.57974e-06                  |
+-----------------------------------------------------------------------+
+----------------------------------------------------------------+
|  Inner_Iter|    rms[Rho]|     rms[nu]|          CL|          CD|
+----------------------------------------------------------------+
|         902|   -5.781778|   -9.882690|    0.824001|    0.012159|
|         903|   -6.166144|  -10.037256|    0.824001|    0.012159|
|         904|   -6.410350|  -10.113298|    0.824001|    0.012159|
|         905|   -6.489775|  -10.167401|    0.824001|    0.012159|
|         906|   -6.544070|  -10.214525|    0.824001|    0.012159|
|         907|   -6.614476|  -10.258300|    0.824001|    0.012159|
|         908|   -6.701667|  -10.298842|    0.824001|    0.012159|
|         909|   -6.792995|  -10.335761|    0.824001|    0.012159|
|         910|   -6.871764|  -10.368011|    0.824001|    0.012159|
|         911|   -6.929234|  -10.393392|    0.824001|    0.012159|
|         912|   -6.966866|  -10.410141|    0.824001|    0.012159|
|         913|   -6.988533|  -10.419407|    0.824001|    0.012159|
|         914|   -6.998197|  -10.424903|    0.824001|    0.012159|
|         915|   -7.001888|  -10.429026|    0.824001|    0.012159|
|         916|   -7.006393|  -10.432974|    0.824001|    0.012159|
|         917|   -7.016252|  -10.436703|    0.824001|    0.012159|
|         918|   -7.032527|  -10.440117|    0.824001|    0.012159|
|         919|   -7.053370|  -10.443743|    0.824001|    0.012159|
|         920|   -7.075535|  -10.448538|    0.824001|    0.012159|
|         921|   -7.096241|  -10.455303|    0.824001|    0.012159|
|         922|   -7.114548|  -10.464238|    0.824001|    0.012159|
|         923|   -7.131307|  -10.474879|    0.824001|    0.012159|
|         924|   -7.147985|  -10.486297|    0.824001|    0.012159|
|         925|   -7.165510|  -10.497419|    0.824001|    0.012159|
|         926|   -7.183872|  -10.507276|    0.824001|    0.012159|
|         927|   -7.202356|  -10.515152|    0.824001|    0.012159|
|         928|   -7.219973|  -10.520627|    0.824001|    0.012159|
|         929|   -7.235804|  -10.523568|    0.824001|    0.012159|
|         930|   -7.249193|  -10.524104|    0.824001|    0.012159|
|         931|   -7.259874|  -10.522555|    0.824001|    0.012159|
|         932|   -7.268068|  -10.519335|    0.824001|    0.012159|
|         933|   -7.274488|  -10.514836|    0.824001|    0.012159|
|         934|   -7.280186|  -10.509355|    0.824001|    0.012159|
|         935|   -7.286290|  -10.503067|    0.824001|    0.012159|
|         936|   -7.293744|  -10.496034|    0.824001|    0.012159|
|         937|   -7.303144|  -10.488249|    0.824001|    0.012159|
|         938|   -7.314675|  -10.479673|    0.824001|    0.012159|
|         939|   -7.328098|  -10.470284|    0.824001|    0.012159|
|         940|   -7.342790|  -10.460097|    0.824001|    0.012159|
|         941|   -7.357824|  -10.449190|    0.824001|    0.012159|
|         942|   -7.372139|  -10.437696|    0.824001|    0.012159|
|         943|   -7.384795|  -10.425789|    0.824001|    0.012159|
|         944|   -7.395255|  -10.413661|    0.824000|    0.012159|
|         945|   -7.403561|  -10.401493|    0.824000|    0.012159|
|         946|   -7.410311|  -10.389434|    0.824000|    0.012159|
|         947|   -7.416438|  -10.377593|    0.824000|    0.012159|
|         948|   -7.422925|  -10.366039|    0.824000|    0.012159|
|         949|   -7.430564|  -10.354806|    0.824000|    0.012159|
|         950|   -7.439823|  -10.343910|    0.824000|    0.012159|
|         951|   -7.450819|  -10.333358|    0.824000|    0.012159|
|         952|   -7.463354|  -10.323165|    0.824000|    0.012159|
|         953|   -7.477003|  -10.313359|    0.824000|    0.012159|
|         954|   -7.491219|  -10.303989|    0.824000|    0.012159|
|         955|   -7.505460|  -10.295126|    0.824000|    0.012159|
|         956|   -7.519293|  -10.286858|    0.824000|    0.012159|
|         957|   -7.532477|  -10.279294|    0.824000|    0.012159|
|         958|   -7.544981|  -10.272554|    0.824000|    0.012159|
|         959|   -7.556958|  -10.266765|    0.824000|    0.012159|
|         960|   -7.568671|  -10.262063|    0.824000|    0.012159|
|         961|   -7.580412|  -10.258586|    0.824000|    0.012159|
|         962|   -7.592441|  -10.256472|    0.824000|    0.012159|
|         963|   -7.604941|  -10.255860|    0.824000|    0.012159|
|         964|   -7.618013|  -10.256887|    0.824000|    0.012159|
|         965|   -7.631684|  -10.259690|    0.824000|    0.012159|
|         966|   -7.645929|  -10.264400|    0.824000|    0.012159|
|         967|   -7.660700|  -10.271140|    0.824000|    0.012159|
|         968|   -7.675948|  -10.280025|    0.824000|    0.012159|
|         969|   -7.691634|  -10.291146|    0.824000|    0.012159|
|         970|   -7.707734|  -10.304565|    0.824000|    0.012159|
|         971|   -7.724236|  -10.320291|    0.824000|    0.012159|
|         972|   -7.741128|  -10.338246|    0.824000|    0.012159|
|         973|   -7.758386|  -10.358222|    0.824000|    0.012159|
|         974|   -7.775965|  -10.379813|    0.824000|    0.012159|
|         975|   -7.793789|  -10.402320|    0.824000|    0.012159|
|         976|   -7.811753|  -10.424651|    0.824000|    0.012159|
|         977|   -7.829717|  -10.445245|    0.824000|    0.012159|
|         978|   -7.847513|  -10.462096|    0.824000|    0.012159|
|         979|   -7.864954|  -10.473005|    0.824000|    0.012159|
|         980|   -7.881839|  -10.476089|    0.824000|    0.012159|
|         981|   -7.897963|  -10.470412|    0.824000|    0.012159|
|         982|   -7.913131|  -10.456363|    0.824000|    0.012159|
|         983|   -7.927166|  -10.435499|    0.824000|    0.012159|
|         984|   -7.939922|  -10.409985|    0.824000|    0.012159|
|         985|   -7.951294|  -10.381994|    0.824000|    0.012159|
|         986|   -7.961228|  -10.353334|    0.824000|    0.012159|
|         987|   -7.969721|  -10.325341|    0.824000|    0.012159|
|         988|   -7.976830|  -10.298917|    0.824000|    0.012159|
|         989|   -7.982654|  -10.274634|    0.824000|    0.012159|
|         990|   -7.987338|  -10.252829|    0.824000|    0.012159|
[...]
|        5081|   -6.006611|   -7.911774|    0.824236|    0.012163|
|        5082|   -6.014068|   -7.916045|    0.824236|    0.012163|
|        5083|   -6.021455|   -7.920270|    0.824236|    0.012163|
|        5084|   -6.028710|   -7.924478|    0.824236|    0.012163|
|        5085|   -6.035775|   -7.928694|    0.824236|    0.012163|
|        5086|   -6.042595|   -7.932941|    0.824236|    0.012163|
|        5087|   -6.049118|   -7.937241|    0.824237|    0.012163|
|        5088|   -6.055301|   -7.941612|    0.824237|    0.012163|
|        5089|   -6.061107|   -7.946068|    0.824237|    0.012163|
|        5090|   -6.066510|   -7.950619|    0.824237|    0.012163|
|        5091|   -6.071490|   -7.955274|    0.824237|    0.012163|
|        5092|   -6.076041|   -7.960035|    0.824237|    0.012162|
|        5093|   -6.080166|   -7.964905|    0.824237|    0.012162|
|        5094|   -6.083877|   -7.969881|    0.824237|    0.012162|
|        5095|   -6.087197|   -7.974961|    0.824237|    0.012162|
|        5096|   -6.090156|   -7.980139|    0.824238|    0.012162|
|        5097|   -6.092792|   -7.985410|    0.824238|    0.012162|
|        5098|   -6.095148|   -7.990768|    0.824238|    0.012162|
|        5099|   -6.097270|   -7.996208|    0.824238|    0.012162|
|        5100|   -6.099209|   -8.001724|    0.824238|    0.012162|
|        5101|   -6.101014|   -8.007313|    0.824238|    0.012162|
|        5102|   -6.102735|   -8.012970|    0.824238|    0.012162|
|        5103|   -6.104420|   -8.018695|    0.824238|    0.012162|
|        5104|   -6.106114|   -8.024486|    0.824238|    0.012162|
|        5105|   -6.107858|   -8.030343|    0.824239|    0.012162|
|        5106|   -6.109690|   -8.036268|    0.824239|    0.012163|
|        5107|   -6.111640|   -8.042262|    0.824239|    0.012163|
|        5108|   -6.113734|   -8.048327|    0.824239|    0.012163|
|        5109|   -6.115993|   -8.054467|    0.824239|    0.012163|
|        5110|   -6.118431|   -8.060682|    0.824239|    0.012163|
|        5111|   -6.121055|   -8.066974|    0.824239|    0.012163|
|        5112|   -6.123867|   -8.073344|    0.824240|    0.012163|
|        5113|   -6.126862|   -8.079795|    0.824240|    0.012163|
|        5114|   -6.130027|   -8.086325|    0.824240|    0.012163|
|        5115|   -6.133347|   -8.092926|    0.824240|    0.012163|
|        5116|   -6.136799|   -8.099590|    0.824240|    0.012163|
|        5117|   -6.140357|   -8.106309|    0.824240|    0.012163|
|        5118|   -6.143988|   -8.113072|    0.824241|    0.012163|
|        5119|   -6.147659|   -8.119868|    0.824241|    0.012164|
|        5120|   -6.151331|   -8.126688|    0.824241|    0.012164|
|        5121|   -6.154966|   -8.133521|    0.824241|    0.012164|
|        5122|   -6.158525|   -8.140357|    0.824241|    0.012164|
|        5123|   -6.161969|   -8.147189|    0.824241|    0.012164|
|        5124|   -6.165263|   -8.154009|    0.824242|    0.012164|
|        5125|   -6.168374|   -8.160811|    0.824242|    0.012164|
|        5126|   -6.171276|   -8.167592|    0.824242|    0.012164|
|        5127|   -6.173947|   -8.174348|    0.824242|    0.012164|
|        5128|   -6.176374|   -8.181077|    0.824242|    0.012164|
|        5129|   -6.178550|   -8.187780|    0.824242|    0.012164|
|        5130|   -6.180477|   -8.194454|    0.824242|    0.012164|
|        5131|   -6.182164|   -8.201104|    0.824242|    0.012165|
|        5132|   -6.183629|   -8.207733|    0.824243|    0.012165|
|        5133|   -6.184895|   -8.214348|    0.824243|    0.012165|
|        5134|   -6.185993|   -8.220956|    0.824243|    0.012165|
|        5135|   -6.186957|   -8.227565|    0.824243|    0.012165|
|        5136|   -6.187828|   -8.234183|    0.824243|    0.012165|
|        5137|   -6.188646|   -8.240820|    0.824243|    0.012165|
|        5138|   -6.189455|   -8.247484|    0.824243|    0.012165|
|        5139|   -6.190297|   -8.254185|    0.824243|    0.012165|
|        5140|   -6.191217|   -8.260932|    0.824243|    0.012165|
|        5141|   -6.192254|   -8.267733|    0.824243|    0.012165|
|        5142|   -6.193447|   -8.274597|    0.824243|    0.012165|
|        5143|   -6.194832|   -8.281533|    0.824244|    0.012165|
|        5144|   -6.196439|   -8.288546|    0.824244|    0.012165|
|        5145|   -6.198298|   -8.295641|    0.824244|    0.012165|
|        5146|   -6.200430|   -8.302819|    0.824244|    0.012165|
|        5147|   -6.202856|   -8.310083|    0.824244|    0.012165|
|        5148|   -6.205589|   -8.317432|    0.824244|    0.012165|
|        5149|   -6.208640|   -8.324865|    0.824244|    0.012165|
|        5150|   -6.212011|   -8.332376|    0.824244|    0.012165|
|        5151|   -6.215704|   -8.339961|    0.824244|    0.012165|
|        5152|   -6.219713|   -8.347612|    0.824244|    0.012165|
|        5153|   -6.224029|   -8.355321|    0.824244|    0.012165|
|        5154|   -6.228636|   -8.363078|    0.824244|    0.012165|
|        5155|   -6.233515|   -8.370870|    0.824244|    0.012165|
|        5156|   -6.238643|   -8.378686|    0.824244|    0.012165|
|        5157|   -6.243989|   -8.386511|    0.824244|    0.012165|
|        5158|   -6.249522|   -8.394333|    0.824244|    0.012165|
|        5159|   -6.255204|   -8.402137|    0.824244|    0.012165|
|        5160|   -6.260994|   -8.409907|    0.824244|    0.012165|
|        5161|   -6.266850|   -8.417631|    0.824244|    0.012165|
|        5162|   -6.272726|   -8.425294|    0.824244|    0.012165|
|        5163|   -6.278572|   -8.432884|    0.824244|    0.012165|
|        5164|   -6.284343|   -8.440388|    0.824244|    0.012165|
|        5165|   -6.289988|   -8.447795|    0.824244|    0.012165|
|        5166|   -6.295463|   -8.455096|    0.824244|    0.012165|
|        5167|   -6.300722|   -8.462283|    0.824244|    0.012165|
|        5168|   -6.305725|   -8.469349|    0.824244|    0.012164|
|        5169|   -6.310436|   -8.476288|    0.824244|    0.012164|
|        5170|   -6.314825|   -8.483095|    0.824244|    0.012164|
|        5171|   -6.318867|   -8.489768|    0.824244|    0.012164|
|        5172|   -6.322546|   -8.496305|    0.824244|    0.012164|
|        5173|   -6.325852|   -8.502701|    0.824244|    0.012164|
|        5174|   -6.328781|   -8.508951|    0.824244|    0.012164|
|        5175|   -6.331337|   -8.515047|    0.824244|    0.012164|
|        5176|   -6.333529|   -8.520982|    0.824244|    0.012164|
|        5177|   -6.335371|   -8.526742|    0.824244|    0.012164|
|        5178|   -6.336884|   -8.532313|    0.824244|    0.012164|
|        5179|   -6.338089|   -8.537679|    0.824244|    0.012164|
|        5180|   -6.339011|   -8.542817|    0.824245|    0.012163|
|        5181|   -6.339676|   -8.547704|    0.824245|    0.012163|
|        5182|   -6.340111|   -8.552312|    0.824245|    0.012163|
|        5183|   -6.340340|   -8.556609|    0.824245|    0.012163|
|        5184|   -6.340389|   -8.560565|    0.824245|    0.012163|
|        5185|   -6.340281|   -8.564152|    0.824245|    0.012163|
|        5186|   -6.340036|   -8.567340|    0.824245|    0.012163|
|        5187|   -6.339674|   -8.570105|    0.824246|    0.012163|
|        5188|   -6.339210|   -8.572422|    0.824246|    0.012163|
|        5189|   -6.338660|   -8.574275|    0.824246|    0.012163|
|        5190|   -6.338035|   -8.575650|    0.824246|    0.012162|
|        5191|   -6.337345|   -8.576541|    0.824246|    0.012162|
|        5192|   -6.336599|   -8.576948|    0.824247|    0.012162|
|        5193|   -6.335803|   -8.576881|    0.824247|    0.012162|
|        5194|   -6.334964|   -8.576355|    0.824247|    0.012162|
|        5195|   -6.334087|   -8.575394|    0.824247|    0.012162|
|        5196|   -6.333174|   -8.574029|    0.824247|    0.012162|
|        5197|   -6.332231|   -8.572297|    0.824248|    0.012162|
|        5198|   -6.331260|   -8.570237|    0.824248|    0.012162|
|        5199|   -6.330264|   -8.567894|    0.824248|    0.012162|
|        5200|   -6.329248|   -8.565313|    0.824248|    0.012162|
|        5201|   -6.328214|   -8.562540|    0.824249|    0.012162|
|        5202|   -6.327168|   -8.559620|    0.824249|    0.012162|
|        5203|   -6.326112|   -8.556596|    0.824249|    0.012161|
|        5204|   -6.325051|   -8.553508|    0.824249|    0.012161|
|        5205|   -6.323992|   -8.550394|    0.824249|    0.012161|
|        5206|   -6.322939|   -8.547286|    0.824250|    0.012161|
|        5207|   -6.321900|   -8.544213|    0.824250|    0.012161|
|        5208|   -6.320881|   -8.541199|    0.824250|    0.012161|
|        5209|   -6.319891|   -8.538264|    0.824250|    0.012161|
|        5210|   -6.318936|   -8.535424|    0.824250|    0.012161|
|        5211|   -6.318028|   -8.532691|    0.824250|    0.012161|
|        5212|   -6.317176|   -8.530072|    0.824251|    0.012161|
|        5213|   -6.316390|   -8.527572|    0.824251|    0.012161|
|        5214|   -6.315682|   -8.525194|    0.824251|    0.012161|
|        5215|   -6.315064|   -8.522938|    0.824251|    0.012161|
|        5216|   -6.314549|   -8.520800|    0.824251|    0.012161|
|        5217|   -6.314151|   -8.518780|    0.824251|    0.012161|
|        5218|   -6.313882|   -8.516871|    0.824251|    0.012161|
|        5219|   -6.313759|   -8.515070|    0.824252|    0.012161|
|        5220|   -6.313794|   -8.513372|    0.824252|    0.012161|
|        5221|   -6.314003|   -8.511772|    0.824252|    0.012161|
|        5222|   -6.314399|   -8.510265|    0.824252|    0.012161|
|        5223|   -6.314998|   -8.508847|    0.824252|    0.012161|
|        5224|   -6.315813|   -8.507516|    0.824252|    0.012161|
|        5225|   -6.316856|   -8.506270|    0.824252|    0.012161|
|        5226|   -6.318140|   -8.505106|    0.824252|    0.012161|
|        5227|   -6.319675|   -8.504024|    0.824252|    0.012161|
|        5228|   -6.321470|   -8.503024|    0.824252|    0.012161|
|        5229|   -6.323533|   -8.502105|    0.824252|    0.012161|
|        5230|   -6.325869|   -8.501269|    0.824253|    0.012161|
|        5231|   -6.328483|   -8.500516|    0.824253|    0.012161|
|        5232|   -6.331374|   -8.499847|    0.824253|    0.012162|
|        5233|   -6.334542|   -8.499262|    0.824253|    0.012162|
|        5234|   -6.337982|   -8.498764|    0.824253|    0.012162|
|        5235|   -6.341686|   -8.498353|    0.824253|    0.012162|
|        5236|   -6.345643|   -8.498028|    0.824253|    0.012162|
|        5237|   -6.349841|   -8.497791|    0.824253|    0.012162|
|        5238|   -6.354260|   -8.497642|    0.824253|    0.012162|
|        5239|   -6.358881|   -8.497579|    0.824253|    0.012162|
|        5240|   -6.363677|   -8.497601|    0.824253|    0.012162|
|        5241|   -6.368620|   -8.497707|    0.824253|    0.012162|
|        5242|   -6.373679|   -8.497895|    0.824253|    0.012162|
|        5243|   -6.378817|   -8.498163|    0.824253|    0.012162|
|        5244|   -6.383997|   -8.498508|    0.824253|    0.012162|
|        5245|   -6.389176|   -8.498928|    0.824253|    0.012162|
|        5246|   -6.394312|   -8.499418|    0.824253|    0.012163|
|        5247|   -6.399359|   -8.499976|    0.824253|    0.012163|
|        5248|   -6.404271|   -8.500598|    0.824253|    0.012163|
|        5249|   -6.409003|   -8.501280|    0.824253|    0.012163|
|        5250|   -6.413511|   -8.502019|    0.824252|    0.012163|
|        5251|   -6.417752|   -8.502812|    0.824252|    0.012163|
|        5252|   -6.421687|   -8.503653|    0.824252|    0.012163|
|        5253|   -6.425282|   -8.504539|    0.824252|    0.012163|
|        5254|   -6.428507|   -8.505466|    0.824252|    0.012163|
|        5255|   -6.431340|   -8.506429|    0.824252|    0.012163|
|        5256|   -6.433764|   -8.507424|    0.824252|    0.012163|
|        5257|   -6.435772|   -8.508444|    0.824252|    0.012163|
|        5258|   -6.437362|   -8.509486|    0.824252|    0.012163|
|        5259|   -6.438540|   -8.510544|    0.824252|    0.012164|
|        5260|   -6.439322|   -8.511614|    0.824252|    0.012164|
|        5261|   -6.439726|   -8.512691|    0.824251|    0.012164|
|        5262|   -6.439779|   -8.513768|    0.824251|    0.012164|
|        5263|   -6.439512|   -8.514839|    0.824251|    0.012164|
|        5264|   -6.438960|   -8.515899|    0.824251|    0.012164|
|        5265|   -6.438162|   -8.516941|    0.824251|    0.012164|
|        5266|   -6.437155|   -8.517960|    0.824251|    0.012164|
|        5267|   -6.435982|   -8.518949|    0.824251|    0.012164|
|        5268|   -6.434682|   -8.519902|    0.824251|    0.012164|
|        5269|   -6.433296|   -8.520811|    0.824251|    0.012164|
|        5270|   -6.431862|   -8.521670|    0.824250|    0.012164|
|        5271|   -6.430416|   -8.522472|    0.824250|    0.012164|
|        5272|   -6.428993|   -8.523212|    0.824250|    0.012164|
|        5273|   -6.427625|   -8.523883|    0.824250|    0.012164|
|        5274|   -6.426340|   -8.524480|    0.824250|    0.012164|
|        5275|   -6.425165|   -8.524999|    0.824250|    0.012164|
|        5276|   -6.424124|   -8.525436|    0.824250|    0.012164|
|        5277|   -6.423235|   -8.525788|    0.824250|    0.012164|
|        5278|   -6.422519|   -8.526053|    0.824250|    0.012164|
|        5279|   -6.421989|   -8.526229|    0.824250|    0.012164|
|        5280|   -6.421658|   -8.526316|    0.824250|    0.012164|
|        5281|   -6.421537|   -8.526314|    0.824249|    0.012164|
|        5282|   -6.421633|   -8.526223|    0.824249|    0.012164|
|        5283|   -6.421954|   -8.526045|    0.824249|    0.012164|
|        5284|   -6.422502|   -8.525783|    0.824249|    0.012164|
|        5285|   -6.423281|   -8.525439|    0.824249|    0.012164|
|        5286|   -6.424291|   -8.525015|    0.824249|    0.012164|
|        5287|   -6.425533|   -8.524517|    0.824249|    0.012164|
|        5288|   -6.427005|   -8.523947|    0.824249|    0.012164|
|        5289|   -6.428703|   -8.523309|    0.824249|    0.012164|
|        5290|   -6.430625|   -8.522607|    0.824249|    0.012164|
|        5291|   -6.432767|   -8.521844|    0.824249|    0.012149|
+-----------------------------------------------------------------------+
|Fixed CL Mode (Finite Difference)       |Value                         |
+-----------------------------------------------------------------------+
|Delta CL / Delta AoA                    |0.249445                      |
|Delta CD / Delta CL                     |0.0198431                     |
|Delta CMz / Delta CL                    |0.0164261                     |
+-----------------------------------------------------------------------+
Writing Flow Meta-Data file: flow.meta

--------------------------- Finalizing Solver ---------------------------
Deleted CNumerics container.
Deleted CIntegration container.
Deleted CSolver container.
Deleted CIteration container.
Deleted CInterface container.
Deleted CGeometry container.
Deleted CFreeFormDefBox class.
Deleted CSurfaceMovement class.
Deleted CVolumetricMovement class.
Deleted CConfig container.
Deleted nInst container.
Deleted COutput class.
-------------------------------------------------------------------------

------------------------- Exit Success (SU2_CFD) ------------------------


-------------------------------------------------------------------------
|    ___ _   _ ___                                                      |
|   / __| | | |_  )   Release 8.0.0 "Harrier"                           |
|   \__ \ |_| |/ /                                                      |
|   |___/\___//___|   Suite (Solution Exporting Code)                   |
|                                                                       |
-------------------------------------------------------------------------
| SU2 Project Website: https://su2code.github.io                        |
|                                                                       |
| The SU2 Project is maintained by the SU2 Foundation                   |
| (http://su2foundation.org)                                            |
-------------------------------------------------------------------------
| Copyright 2012-2023, SU2 Contributors                                 |
|                                                                       |
| SU2 is free software; you can redistribute it and/or                  |
| modify it under the terms of the GNU Lesser General Public            |
| License as published by the Free Software Foundation; either          |
| version 2.1 of the License, or (at your option) any later version.    |
|                                                                       |
| SU2 is distributed in the hope that it will be useful,                |
| but WITHOUT ANY WARRANTY; without even the implied warranty of        |
| MERCHANTABILITY or FITNESS FOR A PARTICULAR PURPOSE. See the GNU      |
| Lesser General Public License for more details.                       |
|                                                                       |
| You should have received a copy of the GNU Lesser General Public      |
| License along with SU2. If not, see <http://www.gnu.org/licenses/>.   |
-------------------------------------------------------------------------

----------------- Physical Case Definition ( Zone 0 ) -------------------
Input mesh file name: mesh_RAE2822_turb_deform.su2

-------------------- Output Information ( Zone 0 ) ----------------------
The tabular file format is CSV (.csv).
Flow variables file name: flow.

------------- Config File Boundary Information ( Zone 0 ) ---------------
+-----------------------------------------------------------------------+
|                        Marker Type|                        Marker Name|
+-----------------------------------------------------------------------+
|                          Far-field|                           FARFIELD|
+-----------------------------------------------------------------------+
|                     Heat flux wall|                            AIRFOIL|
+-----------------------------------------------------------------------+
Two dimensional problem.
13937 grid points before partitioning.
22842 volume elements before partitioning.
2 surface markers.
192 boundary elements in index 0 (Marker = AIRFOIL).
40 boundary elements in index 1 (Marker = FARFIELD).
Executing the partitioning functions.
Building the graph adjacency structure.
Calling ParMETIS... graph partitioning complete (831 edge cuts).
Distributing ParMETIS coloring.
Rebalancing vertices.
Rebalancing volume element connectivity.
Rebalancing markers and surface elements.
14875 vertices including ghost points. 
23674 interior elements including halo cells. 
18780 triangles.
4894 quadrilaterals.
Establishing MPI communication patterns.
Identify vertices.
Storing a mapping from global to local point index.

------------------------- Solution Postprocessing -----------------------
Reading and storing the solution from restart_flow.
Volume output fields: COORDINATES, SOLUTION
  Info: Ignoring the following screen output fields:
  RMS_DENSITY, RMS_NU_TILDE, LIFT, DRAG
Screen output fields: INNER_ITER
  Info: Ignoring the following history output groups:
  RMS_RES, AERO_COEFF
History output group(s): ITER
Warning: No (valid) fields chosen for convergence monitoring. Convergence monitoring inactive.
Warning: No (valid) fields chosen for time convergence monitoring. Time convergence monitoring inactive.
|Paraview                           |flow.vtu                           |
|Paraview surface                   |surface_flow.vtu                   |
|CSV file                           |surface_flow.csv                   |

------------------------- Finalize Solver -------------------------
Deleted CGeometry container.
Deleted CSolver class.
Deleted CConfig container.
Deleted COutput class.

Completed in 0.017245 seconds on 6 cores.

------------------------- Exit Success (SU2_SOL) ------------------------

