
-------------------------------------------------------------------------
|    ___ _   _ ___                                                      |
|   / __| | | |_  )   Release 8.0.0 "Harrier"                           |
|   \__ \ |_| |/ /                                                      |
|   |___/\___//___|   Suite (Computational Fluid Dynamics Code)         |
|                                                                       |
-------------------------------------------------------------------------
| SU2 Project Website: https://su2code.github.io                        |
|                                                                       |
| The SU2 Project is maintained by the SU2 Foundation                   |
| (http://su2foundation.org)                                            |
-------------------------------------------------------------------------
| Copyright 2012-2023, SU2 Contributors                                 |
|                                                                       |
| SU2 is free software; you can redistribute it and/or                  |
| modify it under the terms of the GNU Lesser General Public            |
| License as published by the Free Software Foundation; either          |
| version 2.1 of the License, or (at your option) any later version.    |
|                                                                       |
| SU2 is distributed in the hope that it will be useful,                |
| but WITHOUT ANY WARRANTY; without even the implied warranty of        |
| MERCHANTABILITY or FITNESS FOR A PARTICULAR PURPOSE. See the GNU      |
| Lesser General Public License for more details.                       |
|                                                                       |
| You should have received a copy of the GNU Lesser General Public      |
| License along with SU2. If not, see <http://www.gnu.org/licenses/>.   |
-------------------------------------------------------------------------

Parsing config file for zone 0

----------------- Physical Case Definition ( Zone 0 ) -------------------
Compressible RANS equations.
Turbulence model: Spalart-Allmaras-noft2
Hybrid RANS/LES: No Hybrid RANS/LES
Mach number: 0.734.
Angle of attack (AoA): 2.31 deg, and angle of sideslip (AoS): 0 deg.
Reynolds number: 6.5e+06. Reference length 1.
Fixed CL mode, target value: 0.824.
Reading and writing binary SU2 native restart files.
Read flow solution from: solution_flow.dat.
Dimensional simulation.
The reference area is 1 m^2.
The semi-span will be computed using the max y(3D) value.
The reference length is 1 m.
Reference origin for moment evaluation is (0.25, 0, 0).
Surface(s) where the force coefficients are evaluated: AIRFOIL.

Surface(s) plotted in the output file: AIRFOIL.
Surface(s) affected by the design variables: AIRFOIL.
Input mesh file name: mesh_RAE2822_turb_deform.su2

--------------- Space Numerical Integration ( Zone 0 ) ------------------
Jameson-Schmidt-Turkel scheme (2nd order in space) for the flow inviscid terms.
JST viscous coefficients (2nd & 4th): 0.5, 0.02.
The method includes a grid stretching correction (p = 0.3).
Scalar upwind solver for the turbulence model.
First order integration in space.
Average of gradients with correction (viscous flow terms).
Average of gradients with correction (viscous turbulence terms).
Gradient for viscous and source terms: inverse-distance weighted Least-Squares.

--------------- Time Numerical Integration  ( Zone 0 ) ------------------
Local time stepping (steady state simulation).
Euler implicit method for the flow equations.
FGMRES is used for solving the linear system.
Using a ILU(0) preconditioning.
Convergence criteria of the linear solver: 1e-06.
Max number of linear iterations: 10.
No CFL adaptation.
Courant-Friedrichs-Lewy number:       10
Euler implicit time integration for the turbulence model.

------------------ Convergence Criteria  ( Zone 0 ) ---------------------
Maximum number of solver subiterations: 5500.
Begin convergence monitoring at iteration 10.
Residual minimum value: 1e-12.
Cauchy series min. value: 1e-06.
Number of Cauchy elements: 100.
Begin windowed time average at iteration 0.

-------------------- Output Information ( Zone 0 ) ----------------------
File writing frequency: 
+------------------------------------+
|                     File| Frequency|
+------------------------------------+
|                  RESTART|     10000|
|                 PARAVIEW|     10000|
|         SURFACE_PARAVIEW|     10000|
|              SURFACE_CSV|     10000|
+------------------------------------+
Writing the convergence history file every 1 inner iterations.
Writing the screen convergence history every 1 inner iterations.
The tabular file format is CSV (.csv).
Convergence history file name: history_direct.
Forces breakdown file name: forces_breakdown.dat.
Surface file name: surface_flow.
Volume file name: flow.
Restart file name: restart_flow.dat.

------------- Config File Boundary Information ( Zone 0 ) ---------------
+-----------------------------------------------------------------------+
|                        Marker Type|                        Marker Name|
+-----------------------------------------------------------------------+
|                          Far-field|                           FARFIELD|
+-----------------------------------------------------------------------+
|                     Heat flux wall|                            AIRFOIL|
+-----------------------------------------------------------------------+

-------------------- Output Preprocessing ( Zone 0 ) --------------------

WARNING: SURFACE_PRESSURE_DROP can only be computed for at least 2 surfaces (outlet, inlet, ...)

Screen output fields: INNER_ITER, RMS_DENSITY, RMS_NU_TILDE, LIFT, DRAG
History output group(s): ITER, RMS_RES, AERO_COEFF
Convergence field(s): RMS_DENSITY
Warning: No (valid) fields chosen for time convergence monitoring. Time convergence monitoring inactive.
Volume output fields: COORDINATES, SOLUTION, PRIMITIVE

------------------- Geometry Preprocessing ( Zone 0 ) -------------------
Two dimensional problem.
13937 grid points before partitioning.
22842 volume elements before partitioning.
2 surface markers.
192 boundary elements in index 0 (Marker = AIRFOIL).
40 boundary elements in index 1 (Marker = FARFIELD).
Executing the partitioning functions.
Building the graph adjacency structure.
Calling ParMETIS... graph partitioning complete (831 edge cuts).
Distributing ParMETIS coloring.
Rebalancing vertices.
Rebalancing volume element connectivity.
Rebalancing markers and surface elements.
14875 vertices including ghost points. 
23674 interior elements including halo cells. 
18780 triangles.
4894 quadrilaterals.
Establishing MPI communication patterns.
Setting point connectivity.
Renumbering points (Reverse Cuthill McKee Ordering).
Recomputing point connectivity.
Setting element connectivity.
Checking the numerical grid orientation.
All volume elements are correctly orientend.
All surface elements are correctly orientend.
Identifying edges and vertices.
Setting the control volume structure.
Area of the computational grid: 32209.9.
Searching for the closest normal neighbors to the surfaces.
Storing a mapping from global to local point index.
Compute the surface curvature.
Max K: 189.497. Mean K: 8.09827. Standard deviation K: 25.5326.
Checking for periodicity.
Computing mesh quality statistics for the dual control volumes.
+--------------------------------------------------------------+
|           Mesh Quality Metric|        Minimum|        Maximum|
+--------------------------------------------------------------+
|    Orthogonality Angle (deg.)|        74.8586|        89.9999|
|     CV Face Area Aspect Ratio|        1.00529|        3358.39|
|           CV Sub-Volume Ratio|        1.00047|        1218.19|
+--------------------------------------------------------------+
Finding max control volume width.
Communicating number of neighbors.
Wetted area = 2.02143 m.
Area projection in the x-plane = 0.126291 m, y-plane = 0.995873 m.
Max. coordinate in the x-direction = 1 m, y-direction = 0.0619981 m.
Min. coordinate in the x-direction = 0 m, y-direction = -0.0608496 m.
Computing wall distances.

-------------------- Solver Preprocessing ( Zone 0 ) --------------------
WARNING: AoA in the solution file (2.78265 deg.) +
         AoA offset in mesh file (0 deg.) = 2.78265 deg.
WARNING: SU2 will use the dCD/dCL provided in the direct solution file: 0.0188177.
WARNING: SU2 will use the dCMz/dCL provided in the direct solution file: 0.0170833.
Viscous flow: Computing pressure using the ideal gas law
based on the free-stream temperature and a density computed
from the Reynolds number.
Force coefficients computed using free-stream values.

-- Models:
+------------------------------------------------------------------------------+
|          Viscosity Model|        Conductivity Model|              Fluid Model|
+------------------------------------------------------------------------------+
|               SUTHERLAND|          CONSTANT_PRANDTL|             STANDARD_AIR|
+------------------------------------------------------------------------------+
-- Fluid properties:
+------------------------------------------------------------------------------+
|                  Name|    Dim. value|    Ref. value|      Unit|Non-dim. value|
+------------------------------------------------------------------------------+
|        Ref. Viscosity|     1.716e-05|             1|   N.s/m^2|     1.716e-05|
|      Sutherland Temp.|        273.15|             1|         K|        273.15|
|     Sutherland Const.|         110.4|             1|         K|         110.4|
+------------------------------------------------------------------------------+
|        Prandtl (Lam.)|             -|             -|         -|          0.71|
|       Prandtl (Turb.)|             -|             -|         -|           0.9|
+------------------------------------------------------------------------------+
|          Gas Constant|       287.058|             1|  N.m/kg.K|       287.058|
|      Spec. Heat Ratio|             -|             -|         -|           1.4|
+------------------------------------------------------------------------------+
-- Initial and free-stream conditions:
+------------------------------------------------------------------------------+
|                  Name|    Dim. value|    Ref. value|      Unit|Non-dim. value|
+------------------------------------------------------------------------------+
|       Static Pressure|         38515|             1|        Pa|         38515|
|               Density|      0.465631|             1|    kg/m^3|      0.465631|
|           Temperature|        288.15|             1|         K|        288.15|
|          Total Energy|        237984|             1|   m^2/s^2|        237984|
|            Velocity-X|       249.484|             1|       m/s|       249.484|
|            Velocity-Y|        12.126|             1|       m/s|        12.126|
|    Velocity Magnitude|       249.778|             1|       m/s|       249.778|
+------------------------------------------------------------------------------+
|             Viscosity|    1.7893e-05|             1|   N.s/m^2|    1.7893e-05|
|          Conductivity|             -|             1|   W/m^2.K|             -|
|     Turb. Kin. Energy|       233.959|             1|   m^2/s^2|       233.959|
|     Spec. Dissipation|        608834|             1|       1/s|        608834|
+------------------------------------------------------------------------------+
|           Mach Number|             -|             -|         -|         0.734|
|       Reynolds Number|             -|             -|         -|       6.5e+06|
+------------------------------------------------------------------------------+
Initialize Jacobian structure (Navier-Stokes). MG level: 0.
Initialize Jacobian structure (SA model).

------------------- Numerics Preprocessing ( Zone 0 ) -------------------

----------------- Integration Preprocessing ( Zone 0 ) ------------------

------------------- Iteration Preprocessing ( Zone 0 ) ------------------
Euler/Navier-Stokes/RANS fluid iteration.

------------------------------ Begin Solver -----------------------------

Simulation Run using the Single-zone Driver
WARNING: SU2 was not compiled for an AVX-capable architecture. Performance could be better,
         see https://su2code.github.io/docs_v7/Build-SU2-Linux-MacOS/#compiler-optimizations
+----------------------------------------------------------------+
|  Inner_Iter|    rms[Rho]|     rms[nu]|          CL|          CD|
+----------------------------------------------------------------+
|           0|   -4.207377|   -5.545412|    0.824489|    0.011842|
|           1|   -4.264218|   -5.648714|    0.824762|    0.011920|
|           2|   -4.324727|   -5.770051|    0.824865|    0.011968|
|           3|   -4.370227|   -5.906319|    0.824864|    0.011989|
|           4|   -4.401303|   -6.050266|    0.824817|    0.011993|
|           5|   -4.421271|   -6.172985|    0.824770|    0.011989|
|           6|   -4.432049|   -6.226594|    0.824743|    0.011985|
|           7|   -4.434997|   -6.212126|    0.824741|    0.011987|
|           8|   -4.431582|   -6.176732|    0.824761|    0.011996|
|           9|   -4.423288|   -6.145516|    0.824797|    0.012011|
|          10|   -4.411579|   -6.122436|    0.824842|    0.012033|
|          11|   -4.398039|   -6.106059|    0.824891|    0.012059|
|          12|   -4.384282|   -6.095326|    0.824939|    0.012089|
|          13|   -4.371621|   -6.090351|    0.824984|    0.012122|
|          14|   -4.360781|   -6.091657|    0.825021|    0.012158|
|          15|   -4.351868|   -6.099289|    0.825049|    0.012194|
|          16|   -4.344552|   -6.112223|    0.825063|    0.012232|
|          17|   -4.338351|   -6.128084|    0.825064|    0.012270|
|          18|   -4.332904|   -6.143222|    0.825050|    0.012306|
|          19|   -4.328103|   -6.153462|    0.825022|    0.012341|
|          20|   -4.324077|   -6.155677|    0.824980|    0.012374|
|          21|   -4.321060|   -6.149167|    0.824927|    0.012404|
|          22|   -4.319238|   -6.135811|    0.824864|    0.012431|
|          23|   -4.318655|   -6.118737|    0.824795|    0.012454|
|          24|   -4.319180|   -6.100800|    0.824720|    0.012474|
|          25|   -4.320551|   -6.083861|    0.824643|    0.012490|
|          26|   -4.322436|   -6.068773|    0.824566|    0.012503|
|          27|   -4.324508|   -6.055745|    0.824491|    0.012512|
|          28|   -4.326488|   -6.044690|    0.824418|    0.012518|
|          29|   -4.328171|   -6.035492|    0.824349|    0.012520|
|          30|   -4.329425|   -6.028148|    0.824283|    0.012520|
|          31|   -4.330172|   -6.022765|    0.824222|    0.012517|
|          32|   -4.330372|   -6.019506|    0.824165|    0.012511|
|          33|   -4.330013|   -6.018513|    0.824111|    0.012503|
|          34|   -4.329104|   -6.019842|    0.824059|    0.012493|
|          35|   -4.327674|   -6.023427|    0.824009|    0.012482|
|          36|   -4.325773|   -6.029077|    0.823961|    0.012468|
|          37|   -4.323471|   -6.036483|    0.823912|    0.012454|
|          38|   -4.320847|   -6.045249|    0.823863|    0.012438|
|          39|   -4.317982|   -6.054928|    0.823813|    0.012422|
|          40|   -4.314951|   -6.065041|    0.823762|    0.012404|
|          41|   -4.311815|   -6.075117|    0.823709|    0.012387|
|          42|   -4.308616|   -6.084721|    0.823656|    0.012369|
|          43|   -4.305386|   -6.093456|    0.823602|    0.012350|
|          44|   -4.302141|   -6.101023|    0.823547|    0.012332|
|          45|   -4.298883|   -6.107211|    0.823493|    0.012314|
|          46|   -4.295603|   -6.111933|    0.823440|    0.012295|
|          47|   -4.292275|   -6.115210|    0.823390|    0.012277|
|          48|   -4.288862|   -6.117177|    0.823342|    0.012259|
|          49|   -4.285312|   -6.118067|    0.823298|    0.012241|
|          50|   -4.281570|   -6.118170|    0.823260|    0.012223|
|          51|   -4.277584|   -6.117808|    0.823227|    0.012206|
|          52|   -4.273313|   -6.117276|    0.823202|    0.012188|
|          53|   -4.268733|   -6.116834|    0.823184|    0.012171|
|          54|   -4.263847|   -6.116672|    0.823174|    0.012154|
|          55|   -4.258682|   -6.116911|    0.823172|    0.012137|
|          56|   -4.253288|   -6.117611|    0.823179|    0.012121|
|          57|   -4.247728|   -6.118785|    0.823195|    0.012105|
|          58|   -4.242074|   -6.120417|    0.823218|    0.012089|
|          59|   -4.236399|   -6.122461|    0.823249|    0.012074|
|          60|   -4.230767|   -6.124855|    0.823287|    0.012059|
|          61|   -4.225235|   -6.127534|    0.823331|    0.012045|
|          62|   -4.219844|   -6.130413|    0.823380|    0.012031|
|          63|   -4.214624|   -6.133387|    0.823433|    0.012018|
|          64|   -4.209593|   -6.136322|    0.823489|    0.012006|
|          65|   -4.204760|   -6.139065|    0.823546|    0.011994|
|          66|   -4.200126|   -6.141467|    0.823604|    0.011982|
|          67|   -4.195690|   -6.143399|    0.823662|    0.011972|
|          68|   -4.191450|   -6.144782|    0.823719|    0.011961|
|          69|   -4.187404|   -6.145614|    0.823774|    0.011952|
|          70|   -4.183554|   -6.145973|    0.823827|    0.011943|
|          71|   -4.179902|   -6.146012|    0.823876|    0.011934|
|          72|   -4.176455|   -6.145936|    0.823922|    0.011926|
|          73|   -4.173220|   -6.145967|    0.823965|    0.011919|
|          74|   -4.170204|   -6.146305|    0.824004|    0.011912|
|          75|   -4.167412|   -6.147109|    0.824040|    0.011905|
|          76|   -4.164844|   -6.148476|    0.824073|    0.011899|
|          77|   -4.162496|   -6.150423|    0.824103|    0.011894|
|          78|   -4.160356|   -6.152909|    0.824129|    0.011888|
|          79|   -4.158407|   -6.155843|    0.824153|    0.011883|
|          80|   -4.156626|   -6.159099|    0.824175|    0.011879|
|          81|   -4.154987|   -6.162541|    0.824195|    0.011875|
|          82|   -4.153464|   -6.166052|    0.824213|    0.011872|
|          83|   -4.152035|   -6.169539|    0.824229|    0.011869|
|          84|   -4.150680|   -6.172951|    0.824244|    0.011866|
|          85|   -4.149388|   -6.176274|    0.824258|    0.011864|
|          86|   -4.148158|   -6.179531|    0.824271|    0.011862|
|          87|   -4.146997|   -6.182770|    0.824283|    0.011861|
|          88|   -4.145922|   -6.186046|    0.824295|    0.011861|
|          89|   -4.144957|   -6.189410|    0.824307|    0.011860|
|          90|   -4.144133|   -6.192897|    0.824318|    0.011861|
|          91|   -4.143484|   -6.196531|    0.824330|    0.011862|
|          92|   -4.143047|   -6.200317|    0.824342|    0.011863|
|          93|   -4.142855|   -6.204235|    0.824354|    0.011865|
|          94|   -4.142943|   -6.208251|    0.824367|    0.011867|
|          95|   -4.143338|   -6.212320|    0.824380|    0.011871|
|          96|   -4.144062|   -6.216397|    0.824394|    0.011874|
|          97|   -4.145130|   -6.220434|    0.824409|    0.011879|
|          98|   -4.146549|   -6.224389|    0.824426|    0.011883|
|          99|   -4.148315|   -6.228231|    0.824443|    0.011889|
|         100|   -4.150415|   -6.231932|    0.824461|    0.011895|
|         101|   -4.152825|   -6.235473|    0.824481|    0.011869|
+-----------------------------------------------------------------------+
|Fixed CL Mode                           |Value                         |
+-----------------------------------------------------------------------+
|Current CL                              |0.824481                      |
|Target CL                               |0.824                         |
|Previous AOA                            |2.78265                       |
|Changed AoA by                          |-0.00230625                   |
+-----------------------------------------------------------------------+
+----------------------------------------------------------------+
|  Inner_Iter|    rms[Rho]|     rms[nu]|          CL|          CD|
+----------------------------------------------------------------+
|         102|   -2.829647|   -6.229729|    0.824502|    0.011876|
|         103|   -3.208027|   -6.237324|    0.824523|    0.011884|
|         104|   -3.437871|   -6.241674|    0.824545|    0.011892|
|         105|   -3.511571|   -6.245269|    0.824568|    0.011901|
|         106|   -3.564635|   -6.248491|    0.824591|    0.011910|
|         107|   -3.632989|   -6.251440|    0.824614|    0.011920|
|         108|   -3.715959|   -6.254141|    0.824637|    0.011930|
|         109|   -3.801141|   -6.256623|    0.824659|    0.011940|
|         110|   -3.873332|   -6.258908|    0.824681|    0.011951|
|         111|   -3.924965|   -6.261001|    0.824702|    0.011961|
|         112|   -3.957288|   -6.262911|    0.824722|    0.011972|
|         113|   -3.973853|   -6.264649|    0.824741|    0.011982|
|         114|   -3.978694|   -6.266231|    0.824758|    0.011993|
|         115|   -3.977461|   -6.267666|    0.824773|    0.012003|
|         116|   -3.975971|   -6.268955|    0.824787|    0.012013|
|         117|   -3.977810|   -6.270099|    0.824799|    0.012023|
|         118|   -3.983588|   -6.271099|    0.824809|    0.012032|
|         119|   -3.991708|   -6.271960|    0.824817|    0.012041|
|         120|   -3.999808|   -6.272692|    0.824823|    0.012050|
|         121|   -4.006162|   -6.273305|    0.824828|    0.012058|
|         122|   -4.010360|   -6.273811|    0.824831|    0.012066|
|         123|   -4.013017|   -6.274220|    0.824832|    0.012074|
|         124|   -4.015010|   -6.274543|    0.824833|    0.012081|
|         125|   -4.016917|   -6.274806|    0.824832|    0.012087|
|         126|   -4.018921|   -6.275033|    0.824831|    0.012094|
|         127|   -4.020972|   -6.275249|    0.824828|    0.012099|
|         128|   -4.022968|   -6.275479|    0.824825|    0.012105|
|         129|   -4.024839|   -6.275747|    0.824822|    0.012110|
|         130|   -4.026549|   -6.276078|    0.824819|    0.012115|
|         131|   -4.028089|   -6.276493|    0.824816|    0.012120|
|         132|   -4.029493|   -6.277008|    0.824813|    0.012124|
|         133|   -4.030850|   -6.277635|    0.824810|    0.012128|
|         134|   -4.032296|   -6.278386|    0.824807|    0.012133|
|         135|   -4.033980|   -6.279268|    0.824805|    0.012137|
|         136|   -4.036014|   -6.280281|    0.824803|    0.012140|
|         137|   -4.038442|   -6.281426|    0.824801|    0.012144|
|         138|   -4.041219|   -6.282703|    0.824799|    0.012148|
|         139|   -4.044224|   -6.284100|    0.824798|    0.012151|
|         140|   -4.047272|   -6.285615|    0.824797|    0.012155|
|         141|   -4.050152|   -6.287239|    0.824796|    0.012158|
|         142|   -4.052670|   -6.288969|    0.824794|    0.012161|
|         143|   -4.054687|   -6.290805|    0.824793|    0.012164|
|         144|   -4.056156|   -6.292759|    0.824790|    0.012167|
|         145|   -4.057120|   -6.294836|    0.824788|    0.012170|
|         146|   -4.057698|   -6.297043|    0.824784|    0.012172|
|         147|   -4.058046|   -6.299389|    0.824779|    0.012175|
|         148|   -4.058309|   -6.301890|    0.824773|    0.012177|
|         149|   -4.058595|   -6.304557|    0.824766|    0.012178|
|         150|   -4.058952|   -6.307404|    0.824758|    0.012180|
|         151|   -4.059373|   -6.310448|    0.824748|    0.012181|
|         152|   -4.059807|   -6.313701|    0.824736|    0.012182|
|         153|   -4.060182|   -6.317168|    0.824723|    0.012182|
|         154|   -4.060426|   -6.320853|    0.824707|    0.012182|
|         155|   -4.060482|   -6.324759|    0.824691|    0.012182|
|         156|   -4.060320|   -6.328880|    0.824672|    0.012181|
|         157|   -4.059941|   -6.333213|    0.824652|    0.012180|
|         158|   -4.059364|   -6.337755|    0.824630|    0.012178|
|         159|   -4.058629|   -6.342498|    0.824607|    0.012176|
|         160|   -4.057778|   -6.347427|    0.824582|    0.012174|
|         161|   -4.056855|   -6.352521|    0.824556|    0.012171|
|         162|   -4.055899|   -6.357754|    0.824529|    0.012167|
|         163|   -4.054941|   -6.363096|    0.824502|    0.012164|
|         164|   -4.054007|   -6.368518|    0.824473|    0.012160|
|         165|   -4.053118|   -6.373985|    0.824445|    0.012156|
|         166|   -4.052291|   -6.379460|    0.824416|    0.012152|
|         167|   -4.051541|   -6.384909|    0.824387|    0.012147|
|         168|   -4.050881|   -6.390297|    0.824359|    0.012142|
|         169|   -4.050322|   -6.395594|    0.824331|    0.012137|
|         170|   -4.049870|   -6.400777|    0.824304|    0.012132|
|         171|   -4.049530|   -6.405826|    0.824278|    0.012126|
|         172|   -4.049300|   -6.410723|    0.824253|    0.012121|
|         173|   -4.049174|   -6.415464|    0.824230|    0.012115|
|         174|   -4.049145|   -6.420053|    0.824208|    0.012110|
|         175|   -4.049200|   -6.424499|    0.824188|    0.012104|
|         176|   -4.049327|   -6.428819|    0.824169|    0.012099|
|         177|   -4.049512|   -6.433030|    0.824153|    0.012093|
|         178|   -4.049743|   -6.437156|    0.824139|    0.012088|
|         179|   -4.050014|   -6.441221|    0.824126|    0.012082|
|         180|   -4.050319|   -6.445248|    0.824116|    0.012076|
|         181|   -4.050660|   -6.449262|    0.824108|    0.012071|
|         182|   -4.051044|   -6.453288|    0.824102|    0.012066|
|         183|   -4.051484|   -6.457355|    0.824098|    0.012060|
|         184|   -4.052000|   -6.461481|    0.824096|    0.012055|
|         185|   -4.052617|   -6.465680|    0.824096|    0.012050|
|         186|   -4.053366|   -6.469969|    0.824098|    0.012044|
|         187|   -4.054279|   -6.474358|    0.824102|    0.012039|
|         188|   -4.055394|   -6.478857|    0.824107|    0.012034|
|         189|   -4.056748|   -6.483474|    0.824114|    0.012029|
|         190|   -4.058380|   -6.488214|    0.824123|    0.012024|
|         191|   -4.060324|   -6.493076|    0.824133|    0.012019|
|         192|   -4.062612|   -6.498058|    0.824144|    0.012014|
|         193|   -4.065272|   -6.503155|    0.824156|    0.012009|
|         194|   -4.068322|   -6.508358|    0.824169|    0.012004|
|         195|   -4.071773|   -6.513659|    0.824183|    0.011999|
|         196|   -4.075628|   -6.519043|    0.824198|    0.011995|
|         197|   -4.079875|   -6.524501|    0.824214|    0.011990|
|         198|   -4.084494|   -6.530027|    0.824230|    0.011986|
|         199|   -4.089451|   -6.535607|    0.824246|    0.011981|
|         200|   -4.094697|   -6.541233|    0.824263|    0.011977|
|         201|   -4.100174|   -6.546899|    0.824281|    0.011954|
+-----------------------------------------------------------------------+
|Fixed CL Mode                           |Value                         |
+-----------------------------------------------------------------------+
|Current CL                              |0.824281                      |
|Target CL                               |0.824                         |
|Previous AOA                            |2.78034                       |
|Changed AoA by                          |-0.00131597                   |
+-----------------------------------------------------------------------+
+----------------------------------------------------------------+
|  Inner_Iter|    rms[Rho]|     rms[nu]|          CL|          CD|
+----------------------------------------------------------------+
|         202|   -3.072442|   -6.539495|    0.824298|    0.011950|
|         203|   -3.447281|   -6.550944|    0.824316|    0.011946|
|         204|   -3.665283|   -6.558285|    0.824333|    0.011942|
|         205|   -3.727987|   -6.564953|    0.824351|    0.011938|
|         206|   -3.771285|   -6.571475|    0.824369|    0.011935|
|         207|   -3.827064|   -6.577966|    0.824386|    0.011932|
|         208|   -3.892079|   -6.584458|    0.824404|    0.011929|
|         209|   -3.954114|   -6.590958|    0.824421|    0.011926|
|         210|   -4.002481|   -6.597462|    0.824437|    0.011924|
|         211|   -4.035113|   -6.603953|    0.824454|    0.011921|
|         212|   -4.055637|   -6.610420|    0.824470|    0.011919|
|         213|   -4.067601|   -6.616871|    0.824485|    0.011918|
|         214|   -4.073558|   -6.623328|    0.824500|    0.011916|
|         215|   -4.076237|   -6.629818|    0.824515|    0.011915|
|         216|   -4.078423|   -6.636356|    0.824529|    0.011915|
|         217|   -4.081983|   -6.642960|    0.824542|    0.011914|
|         218|   -4.087357|   -6.649648|    0.824554|    0.011914|
|         219|   -4.093879|   -6.656437|    0.824566|    0.011914|
|         220|   -4.100529|   -6.663338|    0.824577|    0.011915|
|         221|   -4.106649|   -6.670370|    0.824587|    0.011915|
|         222|   -4.112203|   -6.677537|    0.824597|    0.011916|
|         223|   -4.117587|   -6.684840|    0.824605|    0.011918|
|         224|   -4.123237|   -6.692277|    0.824613|    0.011919|
|         225|   -4.129380|   -6.699837|    0.824620|    0.011921|
|         226|   -4.136005|   -6.707501|    0.824626|    0.011923|
|         227|   -4.142980|   -6.715249|    0.824631|    0.011925|
|         228|   -4.150171|   -6.723068|    0.824636|    0.011928|
|         229|   -4.157509|   -6.730947|    0.824639|    0.011931|
|         230|   -4.164998|   -6.738875|    0.824642|    0.011934|
|         231|   -4.172706|   -6.746841|    0.824644|    0.011937|
|         232|   -4.180748|   -6.754833|    0.824645|    0.011940|
|         233|   -4.189285|   -6.762836|    0.824646|    0.011944|
|         234|   -4.198494|   -6.770848|    0.824646|    0.011948|
|         235|   -4.208540|   -6.778856|    0.824645|    0.011951|
|         236|   -4.219534|   -6.786851|    0.824644|    0.011955|
|         237|   -4.231508|   -6.794819|    0.824642|    0.011959|
|         238|   -4.244395|   -6.802747|    0.824640|    0.011964|
|         239|   -4.258031|   -6.810616|    0.824637|    0.011968|
|         240|   -4.272161|   -6.818399|    0.824634|    0.011972|
|         241|   -4.286464|   -6.826075|    0.824630|    0.011976|
|         242|   -4.300589|   -6.833625|    0.824626|    0.011981|
|         243|   -4.314209|   -6.841020|    0.824622|    0.011985|
|         244|   -4.327066|   -6.848234|    0.824617|    0.011990|
|         245|   -4.339010|   -6.855241|    0.824612|    0.011994|
|         246|   -4.350004|   -6.862013|    0.824607|    0.011998|
|         247|   -4.360102|   -6.868526|    0.824601|    0.012003|
|         248|   -4.369399|   -6.874750|    0.824595|    0.012007|
|         249|   -4.377986|   -6.880649|    0.824588|    0.012011|
|         250|   -4.385914|   -6.886192|    0.824581|    0.012015|
|         251|   -4.393179|   -6.891355|    0.824574|    0.012019|
|         252|   -4.399728|   -6.896126|    0.824566|    0.012023|
|         253|   -4.405491|   -6.900504|    0.824558|    0.012027|
|         254|   -4.410406|   -6.904487|    0.824549|    0.012031|
|         255|   -4.414447|   -6.908100|    0.824540|    0.012034|
|         256|   -4.417642|   -6.911389|    0.824530|    0.012038|
|         257|   -4.420072|   -6.914396|    0.824519|    0.012041|
|         258|   -4.421863|   -6.917182|    0.824508|    0.012044|
|         259|   -4.423163|   -6.919819|    0.824496|    0.012047|
|         260|   -4.424124|   -6.922393|    0.824483|    0.012050|
|         261|   -4.424888|   -6.924993|    0.824470|    0.012052|
|         262|   -4.425573|   -6.927714|    0.824456|    0.012054|
|         263|   -4.426275|   -6.930645|    0.824441|    0.012056|
|         264|   -4.427064|   -6.933875|    0.824426|    0.012058|
|         265|   -4.427995|   -6.937481|    0.824409|    0.012060|
|         266|   -4.429105|   -6.941532|    0.824393|    0.012061|
|         267|   -4.430428|   -6.946082|    0.824375|    0.012063|
|         268|   -4.431986|   -6.951168|    0.824357|    0.012063|
|         269|   -4.433803|   -6.956807|    0.824339|    0.012064|
|         270|   -4.435895|   -6.962990|    0.824320|    0.012065|
|         271|   -4.438275|   -6.969683|    0.824301|    0.012065|
|         272|   -4.440952|   -6.976820|    0.824281|    0.012065|
|         273|   -4.443929|   -6.984305|    0.824262|    0.012065|
|         274|   -4.447205|   -6.992002|    0.824242|    0.012064|
|         275|   -4.450774|   -6.999727|    0.824223|    0.012064|
|         276|   -4.454627|   -7.007257|    0.824203|    0.012063|
|         277|   -4.458751|   -7.014346|    0.824184|    0.012062|
|         278|   -4.463130|   -7.020721|    0.824165|    0.012061|
|         279|   -4.467747|   -7.026072|    0.824147|    0.012059|
|         280|   -4.472585|   -7.030122|    0.824129|    0.012058|
|         281|   -4.477623|   -7.032632|    0.824112|    0.012056|
|         282|   -4.482840|   -7.033424|    0.824096|    0.012054|
|         283|   -4.488216|   -7.032407|    0.824080|    0.012052|
|         284|   -4.493728|   -7.029591|    0.824065|    0.012049|
|         285|   -4.499351|   -7.025075|    0.824051|    0.012047|
|         286|   -4.505062|   -7.019054|    0.824038|    0.012044|
|         287|   -4.510833|   -7.011796|    0.824026|    0.012041|
|         288|   -4.516641|   -7.003600|    0.824015|    0.012038|
|         289|   -4.522456|   -6.994789|    0.824005|    0.012035|
|         290|   -4.528255|   -6.985679|    0.823996|    0.012032|
|         291|   -4.534009|   -6.976563|    0.823988|    0.012029|
|         292|   -4.539695|   -6.967706|    0.823981|    0.012026|
|         293|   -4.545289|   -6.959330|    0.823975|    0.012023|
|         294|   -4.550769|   -6.951627|    0.823971|    0.012019|
|         295|   -4.556116|   -6.944753|    0.823967|    0.012016|
|         296|   -4.561316|   -6.938832|    0.823964|    0.012012|
|         297|   -4.566354|   -6.933956|    0.823962|    0.012009|
|         298|   -4.571223|   -6.930189|    0.823961|    0.012005|
|         299|   -4.575918|   -6.927574|    0.823961|    0.012002|
|         300|   -4.580437|   -6.926133|    0.823962|    0.011998|
|         301|   -4.584782|   -6.925868|    0.823964|    0.011997|
+-----------------------------------------------------------------------+
|Fixed CL Mode                           |Value                         |
+-----------------------------------------------------------------------+
|Current CL                              |0.823964                      |
|Target CL                               |0.824                         |
|Previous AOA                            |2.77903                       |
|Changed AoA by                          |0.000188384                   |
+-----------------------------------------------------------------------+
+----------------------------------------------------------------+
|  Inner_Iter|    rms[Rho]|     rms[nu]|          CL|          CD|
+----------------------------------------------------------------+
|         302|   -3.909216|   -6.925844|    0.823966|    0.011994|
|         303|   -4.260884|   -6.928512|    0.823969|    0.011990|
|         304|   -4.447806|   -6.931752|    0.823973|    0.011987|
|         305|   -4.498654|   -6.935916|    0.823977|    0.011984|
|         306|   -4.524670|   -6.940990|    0.823982|    0.011981|
|         307|   -4.549787|   -6.946886|    0.823987|    0.011978|
|         308|   -4.572488|   -6.953484|    0.823993|    0.011975|
|         309|   -4.588346|   -6.960641|    0.823998|    0.011972|
|         310|   -4.596726|   -6.968197|    0.824005|    0.011969|
|         311|   -4.600333|   -6.975977|    0.824011|    0.011966|
|         312|   -4.601888|   -6.983803|    0.824018|    0.011964|
|         313|   -4.602813|   -6.991485|    0.824024|    0.011961|
|         314|   -4.603733|   -6.998843|    0.824031|    0.011959|
|         315|   -4.605083|   -7.005706|    0.824038|    0.011957|
|         316|   -4.607200|   -7.011928|    0.824045|    0.011955|
|         317|   -4.610173|   -7.017388|    0.824052|    0.011953|
|         318|   -4.613756|   -7.021997|    0.824059|    0.011952|
|         319|   -4.617478|   -7.025715|    0.824066|    0.011950|
|         320|   -4.620866|   -7.028541|    0.824072|    0.011949|
|         321|   -4.623628|   -7.030516|    0.824079|    0.011948|
|         322|   -4.625719|   -7.031723|    0.824085|    0.011947|
|         323|   -4.627266|   -7.032274|    0.824092|    0.011946|
|         324|   -4.628449|   -7.032306|    0.824098|    0.011945|
|         325|   -4.629411|   -7.031965|    0.824104|    0.011945|
|         326|   -4.630231|   -7.031400|    0.824109|    0.011945|
|         327|   -4.630925|   -7.030748|    0.824115|    0.011944|
|         328|   -4.631480|   -7.030145|    0.824120|    0.011944|
|         329|   -4.631865|   -7.029708|    0.824126|    0.011944|
|         330|   -4.632047|   -7.029533|    0.824131|    0.011945|
|         331|   -4.632005|   -7.029701|    0.824136|    0.011945|
|         332|   -4.631741|   -7.030268|    0.824140|    0.011946|
|         333|   -4.631281|   -7.031275|    0.824145|    0.011946|
|         334|   -4.630677|   -7.032742|    0.824150|    0.011947|
|         335|   -4.629995|   -7.034674|    0.824154|    0.011948|
|         336|   -4.629306|   -7.037061|    0.824159|    0.011949|
|         337|   -4.628671|   -7.039878|    0.824163|    0.011950|
|         338|   -4.628138|   -7.043090|    0.824167|    0.011952|
|         339|   -4.627739|   -7.046651|    0.824171|    0.011953|
|         340|   -4.627489|   -7.050502|    0.824175|    0.011955|
|         341|   -4.627397|   -7.054578|    0.824179|    0.011956|
|         342|   -4.627464|   -7.058807|    0.824183|    0.011958|
|         343|   -4.627694|   -7.063113|    0.824187|    0.011960|
|         344|   -4.628097|   -7.067416|    0.824190|    0.011962|
|         345|   -4.628690|   -7.071639|    0.824194|    0.011964|
|         346|   -4.629497|   -7.075707|    0.824198|    0.011966|
|         347|   -4.630545|   -7.079549|    0.824201|    0.011968|
|         348|   -4.631860|   -7.083105|    0.824205|    0.011970|
|         349|   -4.633463|   -7.086322|    0.824208|    0.011972|
|         350|   -4.635371|   -7.089161|    0.824212|    0.011975|
|         351|   -4.637591|   -7.091596|    0.824215|    0.011977|
|         352|   -4.640127|   -7.093610|    0.824218|    0.011980|
|         353|   -4.642974|   -7.095201|    0.824221|    0.011982|
|         354|   -4.646128|   -7.096379|    0.824224|    0.011984|
|         355|   -4.649580|   -7.097163|    0.824226|    0.011987|
|         356|   -4.653322|   -7.097582|    0.824229|    0.011989|
|         357|   -4.657345|   -7.097673|    0.824231|    0.011992|
|         358|   -4.661639|   -7.097477|    0.824233|    0.011994|
|         359|   -4.666193|   -7.097040|    0.824235|    0.011997|
|         360|   -4.670992|   -7.096411|    0.824237|    0.011999|
|         361|   -4.676019|   -7.095640|    0.824238|    0.012001|
|         362|   -4.681253|   -7.094774|    0.824239|    0.012004|
|         363|   -4.686669|   -7.093861|    0.824240|    0.012006|
|         364|   -4.692237|   -7.092950|    0.824240|    0.012008|
|         365|   -4.697926|   -7.092085|    0.824240|    0.012010|
|         366|   -4.703698|   -7.091312|    0.824240|    0.012012|
|         367|   -4.709515|   -7.090671|    0.824239|    0.012014|
|         368|   -4.715333|   -7.090203|    0.824238|    0.012016|
|         369|   -4.721111|   -7.089946|    0.824236|    0.012018|
|         370|   -4.726802|   -7.089937|    0.824234|    0.012020|
|         371|   -4.732361|   -7.090212|    0.824231|    0.012022|
|         372|   -4.737745|   -7.090802|    0.824228|    0.012023|
|         373|   -4.742908|   -7.091740|    0.824225|    0.012025|
|         374|   -4.747811|   -7.093050|    0.824221|    0.012026|
|         375|   -4.752415|   -7.094757|    0.824217|    0.012027|
|         376|   -4.756689|   -7.096882|    0.824212|    0.012028|
|         377|   -4.760605|   -7.099439|    0.824207|    0.012029|
|         378|   -4.764143|   -7.102442|    0.824201|    0.012030|
|         379|   -4.767290|   -7.105895|    0.824195|    0.012031|
|         380|   -4.770041|   -7.109799|    0.824189|    0.012032|
|         381|   -4.772396|   -7.114147|    0.824182|    0.012032|
|         382|   -4.774366|   -7.118923|    0.824175|    0.012033|
|         383|   -4.775965|   -7.124106|    0.824167|    0.012033|
|         384|   -4.777215|   -7.129670|    0.824160|    0.012033|
|         385|   -4.778142|   -7.135577|    0.824152|    0.012033|
|         386|   -4.778778|   -7.141782|    0.824143|    0.012033|
|         387|   -4.779154|   -7.148232|    0.824135|    0.012033|
|         388|   -4.779307|   -7.154865|    0.824126|    0.012032|
|         389|   -4.779272|   -7.161611|    0.824118|    0.012032|
|         390|   -4.779085|   -7.168392|    0.824109|    0.012032|
|         391|   -4.778778|   -7.175127|    0.824100|    0.012031|
|         392|   -4.778386|   -7.181729|    0.824091|    0.012030|
|         393|   -4.777937|   -7.188112|    0.824082|    0.012029|
|         394|   -4.777460|   -7.194198|    0.824073|    0.012028|
|         395|   -4.776979|   -7.199918|    0.824065|    0.012027|
|         396|   -4.776514|   -7.205210|    0.824056|    0.012026|
|         397|   -4.776085|   -7.210026|    0.824048|    0.012025|
|         398|   -4.775705|   -7.214334|    0.824039|    0.012024|
|         399|   -4.775387|   -7.218119|    0.824031|    0.012023|
|         400|   -4.775140|   -7.221384|    0.824023|    0.012021|
|         401|   -4.774972|   -7.224152|    0.824016|    0.012018|
+-----------------------------------------------------------------------+
|Fixed CL Mode                           |Value                         |
+-----------------------------------------------------------------------+
|Current CL                              |0.824016                      |
|Target CL                               |0.824                         |
|Previous AOA                            |2.77922                       |
|Changed AoA by                          |-0.000117157                  |
+-----------------------------------------------------------------------+
+----------------------------------------------------------------+
|  Inner_Iter|    rms[Rho]|     rms[nu]|          CL|          CD|
+----------------------------------------------------------------+
|         402|   -4.115467|   -7.224188|    0.824008|    0.012017|
|         403|   -4.460900|   -7.227273|    0.824001|    0.012015|
|         404|   -4.623951|   -7.229234|    0.823995|    0.012014|
|         405|   -4.656769|   -7.230728|    0.823988|    0.012012|
|         406|   -4.674315|   -7.231890|    0.823982|    0.012011|
|         407|   -4.695969|   -7.232803|    0.823976|    0.012009|
|         408|   -4.718514|   -7.233545|    0.823970|    0.012008|
|         409|   -4.736795|   -7.234199|    0.823965|    0.012006|
|         410|   -4.749044|   -7.234819|    0.823960|    0.012004|
|         411|   -4.756621|   -7.235451|    0.823956|    0.012003|
|         412|   -4.761417|   -7.236133|    0.823951|    0.012001|
|         413|   -4.764567|   -7.236895|    0.823948|    0.012000|
|         414|   -4.766691|   -7.237760|    0.823944|    0.011998|
|         415|   -4.768322|   -7.238741|    0.823941|    0.011997|
|         416|   -4.769976|   -7.239841|    0.823938|    0.011995|
|         417|   -4.772000|   -7.241055|    0.823935|    0.011994|
|         418|   -4.774478|   -7.242375|    0.823933|    0.011992|
|         419|   -4.777293|   -7.243790|    0.823931|    0.011991|
|         420|   -4.780274|   -7.245288|    0.823930|    0.011990|
|         421|   -4.783322|   -7.246854|    0.823929|    0.011988|
|         422|   -4.786444|   -7.248476|    0.823928|    0.011987|
|         423|   -4.789698|   -7.250142|    0.823927|    0.011986|
|         424|   -4.793127|   -7.251841|    0.823927|    0.011985|
|         425|   -4.796718|   -7.253567|    0.823927|    0.011984|
|         426|   -4.800408|   -7.255318|    0.823927|    0.011983|
|         427|   -4.804115|   -7.257099|    0.823927|    0.011982|
|         428|   -4.807771|   -7.258910|    0.823928|    0.011982|
|         429|   -4.811335|   -7.260756|    0.823929|    0.011981|
|         430|   -4.814800|   -7.262641|    0.823931|    0.011980|
|         431|   -4.818179|   -7.264576|    0.823932|    0.011980|
|         432|   -4.821503|   -7.266567|    0.823934|    0.011979|
|         433|   -4.824808|   -7.268618|    0.823936|    0.011979|
|         434|   -4.828121|   -7.270734|    0.823939|    0.011979|
|         435|   -4.831453|   -7.272912|    0.823941|    0.011979|
|         436|   -4.834789|   -7.275150|    0.823944|    0.011979|
|         437|   -4.838090|   -7.277439|    0.823947|    0.011979|
|         438|   -4.841291|   -7.279765|    0.823950|    0.011979|
|         439|   -4.844313|   -7.282110|    0.823953|    0.011979|
|         440|   -4.847070|   -7.284453|    0.823956|    0.011979|
|         441|   -4.849480|   -7.286765|    0.823960|    0.011980|
|         442|   -4.851475|   -7.289014|    0.823963|    0.011980|
|         443|   -4.853009|   -7.291168|    0.823967|    0.011981|
|         444|   -4.854058|   -7.293189|    0.823971|    0.011981|
|         445|   -4.854620|   -7.295037|    0.823974|    0.011982|
|         446|   -4.854715|   -7.296671|    0.823978|    0.011983|
|         447|   -4.854375|   -7.298051|    0.823982|    0.011984|
|         448|   -4.853635|   -7.299141|    0.823986|    0.011985|
|         449|   -4.852536|   -7.299906|    0.823990|    0.011986|
|         450|   -4.851114|   -7.300317|    0.823993|    0.011987|
|         451|   -4.849405|   -7.300353|    0.823997|    0.011988|
|         452|   -4.847443|   -7.300000|    0.824000|    0.011989|
|         453|   -4.845265|   -7.299254|    0.824004|    0.011990|
|         454|   -4.842908|   -7.298120|    0.824007|    0.011991|
|         455|   -4.840415|   -7.296613|    0.824010|    0.011992|
|         456|   -4.837829|   -7.294758|    0.824013|    0.011993|
|         457|   -4.835199|   -7.292589|    0.824016|    0.011995|
|         458|   -4.832573|   -7.290145|    0.824019|    0.011996|
|         459|   -4.829996|   -7.287475|    0.824021|    0.011997|
|         460|   -4.827515|   -7.284629|    0.824024|    0.011999|
|         461|   -4.825169|   -7.281664|    0.824026|    0.012000|
|         462|   -4.822995|   -7.278634|    0.824027|    0.012001|
|         463|   -4.821027|   -7.275596|    0.824029|    0.012003|
|         464|   -4.819292|   -7.272602|    0.824030|    0.012004|
|         465|   -4.817814|   -7.269701|    0.824031|    0.012005|
|         466|   -4.816614|   -7.266940|    0.824032|    0.012006|
|         467|   -4.815708|   -7.264359|    0.824033|    0.012008|
|         468|   -4.815111|   -7.261992|    0.824033|    0.012009|
|         469|   -4.814834|   -7.259868|    0.824033|    0.012010|
|         470|   -4.814884|   -7.258009|    0.824033|    0.012011|
|         471|   -4.815268|   -7.256429|    0.824033|    0.012012|
|         472|   -4.815988|   -7.255139|    0.824033|    0.012013|
|         473|   -4.817045|   -7.254142|    0.824032|    0.012014|
|         474|   -4.818437|   -7.253438|    0.824031|    0.012015|
|         475|   -4.820159|   -7.253019|    0.824030|    0.012016|
|         476|   -4.822204|   -7.252875|    0.824028|    0.012017|
|         477|   -4.824564|   -7.252990|    0.824027|    0.012018|
|         478|   -4.827226|   -7.253345|    0.824025|    0.012019|
|         479|   -4.830177|   -7.253920|    0.824023|    0.012019|
|         480|   -4.833402|   -7.254691|    0.824022|    0.012020|
|         481|   -4.836881|   -7.255636|    0.824019|    0.012020|
|         482|   -4.840595|   -7.256731|    0.824017|    0.012021|
|         483|   -4.844520|   -7.257954|    0.824015|    0.012021|
|         484|   -4.848630|   -7.259281|    0.824012|    0.012022|
|         485|   -4.852900|   -7.260694|    0.824010|    0.012022|
|         486|   -4.857298|   -7.262174|    0.824007|    0.012022|
|         487|   -4.861793|   -7.263708|    0.824004|    0.012022|
|         488|   -4.866350|   -7.265284|    0.824001|    0.012022|
|         489|   -4.870934|   -7.266892|    0.823998|    0.012022|
|         490|   -4.875507|   -7.268528|    0.823995|    0.012022|
|         491|   -4.880031|   -7.270186|    0.823992|    0.012022|
|         492|   -4.884466|   -7.271868|    0.823989|    0.012021|
|         493|   -4.888772|   -7.273575|    0.823986|    0.012021|
|         494|   -4.892909|   -7.275312|    0.823983|    0.012021|
|         495|   -4.896838|   -7.277082|    0.823979|    0.012020|
|         496|   -4.900522|   -7.278892|    0.823976|    0.012020|
|         497|   -4.903926|   -7.280749|    0.823973|    0.012019|
|         498|   -4.907018|   -7.282659|    0.823969|    0.012018|
|         499|   -4.909772|   -7.284629|    0.823966|    0.012018|
|         500|   -4.912163|   -7.286663|    0.823963|    0.012017|
|         501|   -4.914175|   -7.288768|    0.823959|    0.012019|
+-----------------------------------------------------------------------+
|Fixed CL Mode                           |Value                         |
+-----------------------------------------------------------------------+
|Current CL                              |0.823959                      |
|Target CL                               |0.824                         |
|Previous AOA                            |2.7791                        |
|Changed AoA by                          |0.000186279                   |
+-----------------------------------------------------------------------+
+----------------------------------------------------------------+
|  Inner_Iter|    rms[Rho]|     rms[nu]|          CL|          CD|
+----------------------------------------------------------------+
|         502|   -3.920153|   -7.282855|    0.823956|    0.012018|
|         503|   -4.288065|   -7.288758|    0.823953|    0.012017|
|         504|   -4.497496|   -7.292139|    0.823950|    0.012016|
|         505|   -4.561865|   -7.295108|    0.823946|    0.012015|
|         506|   -4.606870|   -7.297996|    0.823943|    0.012014|
|         507|   -4.660490|   -7.300887|    0.823940|    0.012012|
|         508|   -4.718895|   -7.303802|    0.823937|    0.012011|
|         509|   -4.770739|   -7.306743|    0.823935|    0.012010|
|         510|   -4.807891|   -7.309700|    0.823932|    0.012009|
|         511|   -4.830674|   -7.312652|    0.823929|    0.012008|
|         512|   -4.843423|   -7.315579|    0.823927|    0.012006|
|         513|   -4.849517|   -7.318468|    0.823924|    0.012005|
|         514|   -4.851162|   -7.321310|    0.823922|    0.012004|
|         515|   -4.850527|   -7.324097|    0.823920|    0.012002|
|         516|   -4.849700|   -7.326818|    0.823918|    0.012001|
|         517|   -4.850003|   -7.329461|    0.823916|    0.012000|
|         518|   -4.851674|   -7.332023|    0.823914|    0.011999|
|         519|   -4.854146|   -7.334501|    0.823912|    0.011998|
|         520|   -4.856629|   -7.336900|    0.823911|    0.011996|
|         521|   -4.858604|   -7.339226|    0.823909|    0.011995|
|         522|   -4.859999|   -7.341492|    0.823908|    0.011994|
|         523|   -4.861043|   -7.343701|    0.823907|    0.011993|
|         524|   -4.862010|   -7.345850|    0.823906|    0.011992|
|         525|   -4.863067|   -7.347944|    0.823905|    0.011991|
|         526|   -4.864251|   -7.349990|    0.823905|    0.011990|
|         527|   -4.865537|   -7.351986|    0.823904|    0.011989|
|         528|   -4.866902|   -7.353941|    0.823904|    0.011988|
|         529|   -4.868343|   -7.355865|    0.823903|    0.011987|
|         530|   -4.869876|   -7.357764|    0.823903|    0.011986|
|         531|   -4.871529|   -7.359649|    0.823903|    0.011986|
|         532|   -4.873340|   -7.361526|    0.823903|    0.011985|
|         533|   -4.875358|   -7.363407|    0.823904|    0.011985|
|         534|   -4.877641|   -7.365301|    0.823904|    0.011984|
|         535|   -4.880246|   -7.367222|    0.823904|    0.011984|
|         536|   -4.883216|   -7.369181|    0.823905|    0.011983|
|         537|   -4.886569|   -7.371193|    0.823906|    0.011983|
|         538|   -4.890298|   -7.373271|    0.823906|    0.011983|
|         539|   -4.894369|   -7.375431|    0.823907|    0.011983|
|         540|   -4.898727|   -7.377685|    0.823908|    0.011983|
|         541|   -4.903306|   -7.380050|    0.823909|    0.011983|
|         542|   -4.908037|   -7.382539|    0.823910|    0.011983|
|         543|   -4.912864|   -7.385167|    0.823911|    0.011983|
|         544|   -4.917750|   -7.387947|    0.823912|    0.011983|
|         545|   -4.922680|   -7.390894|    0.823914|    0.011984|
|         546|   -4.927658|   -7.394021|    0.823915|    0.011984|
|         547|   -4.932698|   -7.397339|    0.823916|    0.011985|
|         548|   -4.937809|   -7.400861|    0.823918|    0.011985|
|         549|   -4.942985|   -7.404593|    0.823919|    0.011986|
|         550|   -4.948200|   -7.408544|    0.823921|    0.011987|
|         551|   -4.953405|   -7.412715|    0.823923|    0.011987|
|         552|   -4.958535|   -7.417108|    0.823924|    0.011988|
|         553|   -4.963513|   -7.421722|    0.823926|    0.011989|
|         554|   -4.968261|   -7.426554|    0.823928|    0.011990|
|         555|   -4.972710|   -7.431595|    0.823930|    0.011991|
|         556|   -4.976801|   -7.436827|    0.823932|    0.011992|
|         557|   -4.980492|   -7.442244|    0.823934|    0.011994|
|         558|   -4.983757|   -7.447831|    0.823936|    0.011995|
|         559|   -4.986583|   -7.453574|    0.823938|    0.011996|
|         560|   -4.988967|   -7.459454|    0.823940|    0.011997|
|         561|   -4.990915|   -7.465449|    0.823942|    0.011999|
|         562|   -4.992439|   -7.471541|    0.823944|    0.012000|
|         563|   -4.993554|   -7.477680|    0.823946|    0.012001|
|         564|   -4.994281|   -7.483812|    0.823948|    0.012003|
|         565|   -4.994648|   -7.489877|    0.823950|    0.012004|
|         566|   -4.994686|   -7.495816|    0.823951|    0.012006|
|         567|   -4.994432|   -7.501565|    0.823953|    0.012007|
|         568|   -4.993928|   -7.507057|    0.823955|    0.012008|
|         569|   -4.993222|   -7.512227|    0.823957|    0.012010|
|         570|   -4.992362|   -7.517010|    0.823958|    0.012011|
|         571|   -4.991399|   -7.521345|    0.823960|    0.012013|
|         572|   -4.990382|   -7.525176|    0.823961|    0.012014|
|         573|   -4.989359|   -7.528457|    0.823963|    0.012015|
|         574|   -4.988379|   -7.531153|    0.823964|    0.012017|
|         575|   -4.987484|   -7.533241|    0.823965|    0.012018|
|         576|   -4.986717|   -7.534713|    0.823966|    0.012019|
|         577|   -4.986114|   -7.535579|    0.823966|    0.012020|
|         578|   -4.985711|   -7.535861|    0.823967|    0.012022|
|         579|   -4.985540|   -7.535599|    0.823967|    0.012023|
|         580|   -4.985628|   -7.534844|    0.823967|    0.012024|
|         581|   -4.986001|   -7.533662|    0.823967|    0.012025|
|         582|   -4.986682|   -7.532124|    0.823966|    0.012026|
|         583|   -4.987688|   -7.530312|    0.823966|    0.012027|
|         584|   -4.989035|   -7.528307|    0.823965|    0.012027|
|         585|   -4.990738|   -7.526195|    0.823964|    0.012028|
|         586|   -4.992804|   -7.524049|    0.823963|    0.012029|
|         587|   -4.995241|   -7.521954|    0.823961|    0.012029|
|         588|   -4.998054|   -7.519983|    0.823960|    0.012030|
|         589|   -5.001241|   -7.518205|    0.823958|    0.012030|
|         590|   -5.004802|   -7.516679|    0.823956|    0.012031|
|         591|   -5.008731|   -7.515447|    0.823954|    0.012031|
|         592|   -5.013019|   -7.514550|    0.823952|    0.012031|
|         593|   -5.017654|   -7.514019|    0.823949|    0.012031|
|         594|   -5.022621|   -7.513869|    0.823947|    0.012031|
|         595|   -5.027901|   -7.514112|    0.823944|    0.012031|
|         596|   -5.033472|   -7.514747|    0.823941|    0.012031|
|         597|   -5.039307|   -7.515766|    0.823939|    0.012031|
|         598|   -5.045377|   -7.517153|    0.823936|    0.012031|
|         599|   -5.051646|   -7.518884|    0.823933|    0.012031|
|         600|   -5.058076|   -7.520924|    0.823930|    0.012030|
|         601|   -5.064627|   -7.523236|    0.823926|    0.012035|
+-----------------------------------------------------------------------+
|Fixed CL Mode                           |Value                         |
+-----------------------------------------------------------------------+
|Current CL                              |0.823926                      |
|Target CL                               |0.824                         |
|Previous AOA                            |2.77928                       |
|Changed AoA by                          |0.000352148                   |
+-----------------------------------------------------------------------+
+----------------------------------------------------------------+
|  Inner_Iter|    rms[Rho]|     rms[nu]|          CL|          CD|
+----------------------------------------------------------------+
|         602|   -3.646183|   -7.455985|    0.823923|    0.012034|
|         603|   -4.027627|   -7.489795|    0.823920|    0.012034|
|         604|   -4.264052|   -7.502660|    0.823917|    0.012033|
|         605|   -4.339285|   -7.511181|    0.823914|    0.012032|
|         606|   -4.391489|   -7.518133|    0.823911|    0.012032|
|         607|   -4.458916|   -7.524180|    0.823907|    0.012031|
|         608|   -4.541149|   -7.529552|    0.823904|    0.012030|
|         609|   -4.625673|   -7.534387|    0.823901|    0.012029|
|         610|   -4.697550|   -7.538742|    0.823898|    0.012028|
|         611|   -4.750091|   -7.542603|    0.823895|    0.012027|
|         612|   -4.785275|   -7.545947|    0.823893|    0.012026|
|         613|   -4.806504|   -7.548808|    0.823890|    0.012025|
|         614|   -4.816933|   -7.551267|    0.823887|    0.012024|
|         615|   -4.821438|   -7.553387|    0.823885|    0.012023|
|         616|   -4.825709|   -7.555183|    0.823882|    0.012021|
|         617|   -4.833678|   -7.556646|    0.823880|    0.012020|
|         618|   -4.846323|   -7.557786|    0.823878|    0.012019|
|         619|   -4.862160|   -7.558648|    0.823876|    0.012018|
|         620|   -4.878628|   -7.559301|    0.823874|    0.012016|
|         621|   -4.893661|   -7.559807|    0.823872|    0.012015|
|         622|   -4.906639|   -7.560211|    0.823871|    0.012014|
|         623|   -4.918187|   -7.560540|    0.823869|    0.012013|
|         624|   -4.929247|   -7.560806|    0.823868|    0.012012|
|         625|   -4.940302|   -7.561021|    0.823867|    0.012010|
|         626|   -4.951189|   -7.561199|    0.823866|    0.012009|
|         627|   -4.961358|   -7.561362|    0.823865|    0.012008|
|         628|   -4.970230|   -7.561536|    0.823864|    0.012007|
|         629|   -4.977418|   -7.561741|    0.823864|    0.012006|
|         630|   -4.982803|   -7.561995|    0.823863|    0.012005|
|         631|   -4.986516|   -7.562322|    0.823863|    0.012004|
|         632|   -4.988917|   -7.562742|    0.823863|    0.012003|
|         633|   -4.990539|   -7.563269|    0.823863|    0.012002|
|         634|   -4.991994|   -7.563910|    0.823864|    0.012001|
|         635|   -4.993850|   -7.564665|    0.823864|    0.012000|
|         636|   -4.996528|   -7.565530|    0.823865|    0.011999|
|         637|   -5.000241|   -7.566504|    0.823866|    0.011998|
|         638|   -5.004985|   -7.567589|    0.823867|    0.011997|
|         639|   -5.010568|   -7.568774|    0.823868|    0.011997|
|         640|   -5.016659|   -7.570050|    0.823869|    0.011996|
|         641|   -5.022856|   -7.571414|    0.823871|    0.011996|
|         642|   -5.028781|   -7.572875|    0.823872|    0.011995|
|         643|   -5.034163|   -7.574439|    0.823874|    0.011995|
|         644|   -5.038914|   -7.576118|    0.823876|    0.011994|
|         645|   -5.043146|   -7.577922|    0.823878|    0.011994|
|         646|   -5.047130|   -7.579874|    0.823880|    0.011994|
|         647|   -5.051223|   -7.581993|    0.823882|    0.011994|
|         648|   -5.055769|   -7.584294|    0.823885|    0.011994|
|         649|   -5.061031|   -7.586786|    0.823887|    0.011994|
|         650|   -5.067145|   -7.589470|    0.823890|    0.011994|
|         651|   -5.074119|   -7.592352|    0.823893|    0.011994|
|         652|   -5.081852|   -7.595440|    0.823895|    0.011994|
|         653|   -5.090171|   -7.598737|    0.823898|    0.011994|
|         654|   -5.098877|   -7.602245|    0.823902|    0.011994|
|         655|   -5.107786|   -7.605969|    0.823905|    0.011995|
|         656|   -5.116759|   -7.609914|    0.823908|    0.011995|
|         657|   -5.125719|   -7.614079|    0.823912|    0.011996|
|         658|   -5.134646|   -7.618466|    0.823915|    0.011996|
|         659|   -5.143561|   -7.623073|    0.823919|    0.011997|
|         660|   -5.152509|   -7.627905|    0.823922|    0.011997|
|         661|   -5.161529|   -7.632961|    0.823926|    0.011998|
|         662|   -5.170645|   -7.638229|    0.823930|    0.011999|
|         663|   -5.179849|   -7.643707|    0.823934|    0.012000|
|         664|   -5.189106|   -7.649388|    0.823937|    0.012000|
|         665|   -5.198356|   -7.655266|    0.823941|    0.012001|
|         666|   -5.207523|   -7.661331|    0.823945|    0.012002|
|         667|   -5.216524|   -7.667569|    0.823949|    0.012003|
|         668|   -5.225275|   -7.673954|    0.823953|    0.012004|
|         669|   -5.233701|   -7.680454|    0.823956|    0.012005|
|         670|   -5.241733|   -7.687030|    0.823960|    0.012006|
|         671|   -5.249310|   -7.693642|    0.823963|    0.012007|
|         672|   -5.256381|   -7.700236|    0.823967|    0.012008|
|         673|   -5.262901|   -7.706741|    0.823970|    0.012009|
|         674|   -5.268835|   -7.713090|    0.823973|    0.012010|
|         675|   -5.274154|   -7.719199|    0.823976|    0.012012|
|         676|   -5.278841|   -7.724973|    0.823979|    0.012013|
|         677|   -5.282892|   -7.730314|    0.823981|    0.012014|
|         678|   -5.286318|   -7.735129|    0.823983|    0.012015|
|         679|   -5.289140|   -7.739327|    0.823985|    0.012016|
|         680|   -5.291400|   -7.742834|    0.823987|    0.012017|
|         681|   -5.293147|   -7.745594|    0.823989|    0.012018|
|         682|   -5.294445|   -7.747578|    0.823990|    0.012019|
|         683|   -5.295366|   -7.748786|    0.823991|    0.012020|
|         684|   -5.295984|   -7.749249|    0.823992|    0.012021|
|         685|   -5.296380|   -7.749028|    0.823992|    0.012022|
|         686|   -5.296633|   -7.748213|    0.823992|    0.012023|
|         687|   -5.296821|   -7.746917|    0.823992|    0.012023|
|         688|   -5.297018|   -7.745272|    0.823992|    0.012024|
|         689|   -5.297295|   -7.743422|    0.823992|    0.012025|
|         690|   -5.297714|   -7.741517|    0.823991|    0.012026|
|         691|   -5.298332|   -7.739705|    0.823990|    0.012026|
|         692|   -5.299201|   -7.738130|    0.823989|    0.012027|
|         693|   -5.300362|   -7.736928|    0.823987|    0.012028|
|         694|   -5.301853|   -7.736222|    0.823985|    0.012028|
|         695|   -5.303701|   -7.736121|    0.823984|    0.012029|
|         696|   -5.305929|   -7.736721|    0.823982|    0.012029|
|         697|   -5.308554|   -7.738101|    0.823980|    0.012030|
|         698|   -5.311585|   -7.740322|    0.823977|    0.012030|
|         699|   -5.315026|   -7.743432|    0.823975|    0.012030|
|         700|   -5.318876|   -7.747461|    0.823972|    0.012031|
|         701|   -5.323128|   -7.752420|    0.823970|    0.012033|
+-----------------------------------------------------------------------+
|Fixed CL Mode                           |Value                         |
+-----------------------------------------------------------------------+
|Current CL                              |0.82397                       |
|Target CL                               |0.824                         |
|Previous AOA                            |2.77964                       |
|Changed AoA by                          |0.000138206                   |
+-----------------------------------------------------------------------+
+----------------------------------------------------------------+
|  Inner_Iter|    rms[Rho]|     rms[nu]|          CL|          CD|
+----------------------------------------------------------------+
|         702|   -4.052012|   -7.722930|    0.823967|    0.012033|
|         703|   -4.430449|   -7.745506|    0.823964|    0.012033|
|         704|   -4.658394|   -7.758130|    0.823961|    0.012033|
|         705|   -4.728465|   -7.769339|    0.823959|    0.012033|
|         706|   -4.777699|   -7.780400|    0.823956|    0.012033|
|         707|   -4.841477|   -7.791555|    0.823953|    0.012033|
|         708|   -4.918568|   -7.802812|    0.823950|    0.012033|
|         709|   -4.997166|   -7.814119|    0.823947|    0.012033|
|         710|   -5.064464|   -7.825359|    0.823944|    0.012032|
|         711|   -5.115443|   -7.836315|    0.823941|    0.012032|
|         712|   -5.151951|   -7.846718|    0.823938|    0.012032|
|         713|   -5.176411|   -7.856298|    0.823936|    0.012031|
|         714|   -5.190828|   -7.864808|    0.823933|    0.012031|
|         715|   -5.198917|   -7.872005|    0.823930|    0.012030|
|         716|   -5.205623|   -7.877637|    0.823928|    0.012030|
|         717|   -5.214736|   -7.881511|    0.823925|    0.012029|
|         718|   -5.227529|   -7.883529|    0.823923|    0.012029|
|         719|   -5.243044|   -7.883712|    0.823921|    0.012028|
|         720|   -5.259311|   -7.882171|    0.823919|    0.012027|
|         721|   -5.274710|   -7.879093|    0.823917|    0.012026|
|         722|   -5.288760|   -7.874706|    0.823915|    0.012026|
|         723|   -5.301917|   -7.869253|    0.823913|    0.012025|
|         724|   -5.314803|   -7.862984|    0.823912|    0.012024|
|         725|   -5.327565|   -7.856147|    0.823910|    0.012023|
|         726|   -5.339763|   -7.848976|    0.823909|    0.012022|
|         727|   -5.350646|   -7.841691|    0.823908|    0.012022|
|         728|   -5.359531|   -7.834481|    0.823907|    0.012021|
|         729|   -5.366051|   -7.827508|    0.823906|    0.012020|
|         730|   -5.370211|   -7.820897|    0.823905|    0.012019|
|         731|   -5.372330|   -7.814749|    0.823905|    0.012018|
|         732|   -5.372948|   -7.809135|    0.823905|    0.012017|
|         733|   -5.372720|   -7.804107|    0.823904|    0.012016|
|         734|   -5.372295|   -7.799687|    0.823904|    0.012015|
|         735|   -5.372205|   -7.795882|    0.823904|    0.012014|
|         736|   -5.372786|   -7.792684|    0.823905|    0.012014|
|         737|   -5.374156|   -7.790074|    0.823905|    0.012013|
|         738|   -5.376228|   -7.788018|    0.823905|    0.012012|
|         739|   -5.378768|   -7.786482|    0.823906|    0.012011|
|         740|   -5.381450|   -7.785433|    0.823906|    0.012010|
|         741|   -5.383936|   -7.784833|    0.823907|    0.012009|
|         742|   -5.385951|   -7.784646|    0.823908|    0.012009|
|         743|   -5.387346|   -7.784834|    0.823909|    0.012008|
|         744|   -5.388137|   -7.785358|    0.823910|    0.012007|
|         745|   -5.388497|   -7.786183|    0.823911|    0.012007|
|         746|   -5.388703|   -7.787273|    0.823912|    0.012006|
|         747|   -5.389067|   -7.788596|    0.823913|    0.012005|
|         748|   -5.389864|   -7.790125|    0.823914|    0.012005|
|         749|   -5.391285|   -7.791833|    0.823916|    0.012004|
|         750|   -5.393415|   -7.793697|    0.823917|    0.012004|
|         751|   -5.396240|   -7.795694|    0.823919|    0.012003|
|         752|   -5.399671|   -7.797800|    0.823920|    0.012003|
|         753|   -5.403577|   -7.799997|    0.823921|    0.012002|
|         754|   -5.407820|   -7.802267|    0.823923|    0.012002|
|         755|   -5.412281|   -7.804597|    0.823925|    0.012001|
|         756|   -5.416882|   -7.806974|    0.823926|    0.012001|
|         757|   -5.421581|   -7.809385|    0.823928|    0.012001|
|         758|   -5.426375|   -7.811819|    0.823929|    0.012001|
|         759|   -5.431282|   -7.814266|    0.823931|    0.012000|
|         760|   -5.436329|   -7.816715|    0.823933|    0.012000|
|         761|   -5.441534|   -7.819156|    0.823935|    0.012000|
|         762|   -5.446902|   -7.821583|    0.823936|    0.012000|
|         763|   -5.452417|   -7.823993|    0.823938|    0.012000|
|         764|   -5.458047|   -7.826386|    0.823940|    0.012000|
|         765|   -5.463745|   -7.828766|    0.823942|    0.012000|
|         766|   -5.469456|   -7.831140|    0.823944|    0.012000|
|         767|   -5.475123|   -7.833516|    0.823945|    0.012001|
|         768|   -5.480688|   -7.835906|    0.823947|    0.012001|
|         769|   -5.486100|   -7.838322|    0.823949|    0.012001|
|         770|   -5.491310|   -7.840776|    0.823951|    0.012001|
|         771|   -5.496276|   -7.843282|    0.823953|    0.012002|
|         772|   -5.500957|   -7.845850|    0.823954|    0.012002|
|         773|   -5.505319|   -7.848485|    0.823956|    0.012002|
|         774|   -5.509332|   -7.851189|    0.823958|    0.012003|
|         775|   -5.512968|   -7.853955|    0.823959|    0.012003|
|         776|   -5.516207|   -7.856770|    0.823961|    0.012004|
|         777|   -5.519036|   -7.859612|    0.823962|    0.012004|
|         778|   -5.521450|   -7.862449|    0.823964|    0.012005|
|         779|   -5.523454|   -7.865240|    0.823965|    0.012005|
|         780|   -5.525059|   -7.867939|    0.823966|    0.012006|
|         781|   -5.526289|   -7.870491|    0.823968|    0.012006|
|         782|   -5.527172|   -7.872836|    0.823969|    0.012007|
|         783|   -5.527747|   -7.874914|    0.823970|    0.012007|
|         784|   -5.528057|   -7.876665|    0.823971|    0.012008|
|         785|   -5.528146|   -7.878035|    0.823971|    0.012009|
|         786|   -5.528066|   -7.878979|    0.823972|    0.012009|
|         787|   -5.527867|   -7.879466|    0.823973|    0.012010|
|         788|   -5.527597|   -7.879480|    0.823973|    0.012011|
|         789|   -5.527307|   -7.879028|    0.823973|    0.012011|
|         790|   -5.527041|   -7.878133|    0.823974|    0.012012|
|         791|   -5.526843|   -7.876840|    0.823974|    0.012013|
|         792|   -5.526750|   -7.875213|    0.823974|    0.012013|
|         793|   -5.526797|   -7.873328|    0.823974|    0.012014|
|         794|   -5.527013|   -7.871275|    0.823974|    0.012015|
|         795|   -5.527422|   -7.869153|    0.823973|    0.012015|
|         796|   -5.528042|   -7.867065|    0.823973|    0.012016|
|         797|   -5.528888|   -7.865112|    0.823972|    0.012017|
|         798|   -5.529970|   -7.863393|    0.823972|    0.012017|
|         799|   -5.531291|   -7.861998|    0.823971|    0.012018|
|         800|   -5.532852|   -7.861008|    0.823970|    0.012018|
|         801|   -5.534649|   -7.860493|    0.823969|    0.012021|
+-----------------------------------------------------------------------+
|Fixed CL Mode                           |Value                         |
+-----------------------------------------------------------------------+
|Current CL                              |0.823969                      |
|Target CL                               |0.824                         |
|Previous AOA                            |2.77978                       |
|Changed AoA by                          |0.000149168                   |
+-----------------------------------------------------------------------+
+----------------------------------------------------------------+
|  Inner_Iter|    rms[Rho]|     rms[nu]|          CL|          CD|
+----------------------------------------------------------------+
|         802|   -4.019447|   -7.800842|    0.823968|    0.012022|
|         803|   -4.401648|   -7.828895|    0.823967|    0.012022|
|         804|   -4.638745|   -7.838913|    0.823966|    0.012023|
|         805|   -4.713180|   -7.845639|    0.823965|    0.012023|
|         806|   -4.764541|   -7.851523|    0.823964|    0.012023|
|         807|   -4.831526|   -7.857189|    0.823963|    0.012024|
|         808|   -4.913873|   -7.862885|    0.823961|    0.012024|
|         809|   -4.999366|   -7.868753|    0.823960|    0.012025|
|         810|   -5.073277|   -7.874877|    0.823959|    0.012025|
|         811|   -5.128662|   -7.881233|    0.823957|    0.012025|
|         812|   -5.166935|   -7.887766|    0.823956|    0.012025|
|         813|   -5.190930|   -7.894449|    0.823955|    0.012026|
|         814|   -5.203408|   -7.901275|    0.823953|    0.012026|
|         815|   -5.209235|   -7.908208|    0.823952|    0.012026|
|         816|   -5.214437|   -7.915158|    0.823951|    0.012026|
|         817|   -5.223335|   -7.922011|    0.823949|    0.012026|
|         818|   -5.237165|   -7.928663|    0.823948|    0.012026|
|         819|   -5.254544|   -7.935043|    0.823947|    0.012026|
|         820|   -5.272899|   -7.941106|    0.823946|    0.012026|
|         821|   -5.290110|   -7.946824|    0.823944|    0.012026|
|         822|   -5.305540|   -7.952157|    0.823943|    0.012026|
|         823|   -5.319851|   -7.957055|    0.823942|    0.012026|
|         824|   -5.334017|   -7.961472|    0.823941|    0.012026|
|         825|   -5.348469|   -7.965379|    0.823940|    0.012026|
|         826|   -5.362873|   -7.968766|    0.823939|    0.012025|
|         827|   -5.376410|   -7.971653|    0.823938|    0.012025|
|         828|   -5.388214|   -7.974077|    0.823938|    0.012025|
|         829|   -5.397681|   -7.976093|    0.823937|    0.012025|
|         830|   -5.404590|   -7.977763|    0.823936|    0.012024|
|         831|   -5.409111|   -7.979154|    0.823936|    0.012024|
|         832|   -5.411747|   -7.980322|    0.823935|    0.012024|
|         833|   -5.413238|   -7.981323|    0.823935|    0.012023|
|         834|   -5.414408|   -7.982192|    0.823934|    0.012023|
|         835|   -5.415992|   -7.982949|    0.823934|    0.012023|
|         836|   -5.418502|   -7.983606|    0.823933|    0.012022|
|         837|   -5.422166|   -7.984163|    0.823933|    0.012022|
|         838|   -5.426927|   -7.984605|    0.823933|    0.012021|
|         839|   -5.432485|   -7.984919|    0.823933|    0.012021|
|         840|   -5.438368|   -7.985085|    0.823933|    0.012020|
|         841|   -5.444033|   -7.985089|    0.823933|    0.012020|
|         842|   -5.448981|   -7.984917|    0.823933|    0.012019|
|         843|   -5.452881|   -7.984557|    0.823933|    0.012019|
|         844|   -5.455656|   -7.984008|    0.823933|    0.012018|
|         845|   -5.457498|   -7.983272|    0.823933|    0.012018|
|         846|   -5.458798|   -7.982354|    0.823934|    0.012017|
|         847|   -5.460031|   -7.981259|    0.823934|    0.012017|
|         848|   -5.461641|   -7.980004|    0.823934|    0.012016|
|         849|   -5.463947|   -7.978605|    0.823935|    0.012016|
|         850|   -5.467108|   -7.977081|    0.823936|    0.012015|
|         851|   -5.471126|   -7.975451|    0.823936|    0.012015|
|         852|   -5.475881|   -7.973737|    0.823937|    0.012014|
|         853|   -5.481179|   -7.971960|    0.823938|    0.012014|
|         854|   -5.486812|   -7.970143|    0.823938|    0.012013|
|         855|   -5.492597|   -7.968315|    0.823939|    0.012013|
|         856|   -5.498411|   -7.966508|    0.823940|    0.012013|
|         857|   -5.504204|   -7.964761|    0.823941|    0.012012|
|         858|   -5.509986|   -7.963109|    0.823942|    0.012012|
|         859|   -5.515812|   -7.961595|    0.823944|    0.012011|
|         860|   -5.521754|   -7.960260|    0.823945|    0.012011|
|         861|   -5.527877|   -7.959150|    0.823946|    0.012011|
|         862|   -5.534226|   -7.958308|    0.823948|    0.012010|
|         863|   -5.540812|   -7.957784|    0.823949|    0.012010|
|         864|   -5.547622|   -7.957625|    0.823951|    0.012010|
|         865|   -5.554614|   -7.957878|    0.823952|    0.012009|
|         866|   -5.561734|   -7.958588|    0.823954|    0.012009|
|         867|   -5.568921|   -7.959797|    0.823955|    0.012009|
|         868|   -5.576112|   -7.961540|    0.823957|    0.012008|
|         869|   -5.583246|   -7.963848|    0.823959|    0.012008|
|         870|   -5.590267|   -7.966741|    0.823960|    0.012008|
|         871|   -5.597120|   -7.970229|    0.823962|    0.012008|
|         872|   -5.603753|   -7.974312|    0.823964|    0.012008|
|         873|   -5.610114|   -7.978972|    0.823966|    0.012008|
|         874|   -5.616149|   -7.984178|    0.823967|    0.012008|
|         875|   -5.621806|   -7.989882|    0.823969|    0.012007|
|         876|   -5.627035|   -7.996017|    0.823970|    0.012007|
|         877|   -5.631792|   -8.002495|    0.823972|    0.012007|
|         878|   -5.636039|   -8.009209|    0.823974|    0.012007|
|         879|   -5.639750|   -8.016032|    0.823975|    0.012007|
|         880|   -5.642909|   -8.022821|    0.823976|    0.012007|
|         881|   -5.645514|   -8.029419|    0.823978|    0.012007|
|         882|   -5.647577|   -8.035662|    0.823979|    0.012007|
|         883|   -5.649121|   -8.041388|    0.823980|    0.012008|
|         884|   -5.650180|   -8.046445|    0.823981|    0.012008|
|         885|   -5.650800|   -8.050706|    0.823982|    0.012008|
|         886|   -5.651034|   -8.054073|    0.823983|    0.012008|
|         887|   -5.650939|   -8.056486|    0.823984|    0.012008|
|         888|   -5.650580|   -8.057932|    0.823984|    0.012008|
|         889|   -5.650018|   -8.058442|    0.823985|    0.012008|
|         890|   -5.649319|   -8.058094|    0.823985|    0.012009|
|         891|   -5.648543|   -8.057003|    0.823986|    0.012009|
|         892|   -5.647751|   -8.055315|    0.823986|    0.012009|
|         893|   -5.646994|   -8.053195|    0.823986|    0.012009|
|         894|   -5.646324|   -8.050814|    0.823987|    0.012009|
|         895|   -5.645784|   -8.048344|    0.823987|    0.012010|
|         896|   -5.645411|   -8.045949|    0.823987|    0.012010|
|         897|   -5.645240|   -8.043777|    0.823987|    0.012010|
|         898|   -5.645296|   -8.041959|    0.823986|    0.012010|
|         899|   -5.645603|   -8.040604|    0.823986|    0.012011|
|         900|   -5.646177|   -8.039801|    0.823986|    0.012011|
|         901|   -5.647033|   -8.039616|    0.823986|    0.012012|
+-----------------------------------------------------------------------+
|Fixed CL Mode                           |Value                         |
+-----------------------------------------------------------------------+
|Current CL                              |0.823986                      |
|Target CL                               |0.824                         |
|Previous AOA                            |2.77992                       |
[...]
|        5298|   -6.044385|   -7.959015|    0.824238|    0.012017|
|        5299|   -6.051264|   -7.962925|    0.824238|    0.012017|
|        5300|   -6.057720|   -7.966876|    0.824238|    0.012016|
|        5301|   -6.063714|   -7.970884|    0.824238|    0.012016|
|        5302|   -6.069219|   -7.974962|    0.824238|    0.012016|
|        5303|   -6.074221|   -7.979118|    0.824238|    0.012016|
|        5304|   -6.078718|   -7.983359|    0.824238|    0.012016|
|        5305|   -6.082722|   -7.987687|    0.824239|    0.012016|
|        5306|   -6.086257|   -7.992106|    0.824239|    0.012016|
|        5307|   -6.089357|   -7.996613|    0.824239|    0.012016|
|        5308|   -6.092067|   -8.001209|    0.824239|    0.012016|
|        5309|   -6.094438|   -8.005891|    0.824239|    0.012016|
|        5310|   -6.096527|   -8.010656|    0.824239|    0.012016|
|        5311|   -6.098394|   -8.015504|    0.824239|    0.012016|
|        5312|   -6.100100|   -8.020436|    0.824239|    0.012016|
|        5313|   -6.101706|   -8.025451|    0.824239|    0.012016|
|        5314|   -6.103269|   -8.030552|    0.824240|    0.012016|
|        5315|   -6.104844|   -8.035743|    0.824240|    0.012016|
|        5316|   -6.106482|   -8.041027|    0.824240|    0.012016|
|        5317|   -6.108228|   -8.046407|    0.824240|    0.012016|
|        5318|   -6.110119|   -8.051888|    0.824240|    0.012016|
|        5319|   -6.112190|   -8.057475|    0.824240|    0.012016|
|        5320|   -6.114464|   -8.063174|    0.824240|    0.012016|
|        5321|   -6.116961|   -8.068989|    0.824241|    0.012016|
|        5322|   -6.119692|   -8.074924|    0.824241|    0.012017|
|        5323|   -6.122663|   -8.080984|    0.824241|    0.012017|
|        5324|   -6.125870|   -8.087169|    0.824241|    0.012017|
|        5325|   -6.129305|   -8.093479|    0.824241|    0.012017|
|        5326|   -6.132953|   -8.099911|    0.824241|    0.012017|
|        5327|   -6.136791|   -8.106461|    0.824242|    0.012017|
|        5328|   -6.140794|   -8.113123|    0.824242|    0.012017|
|        5329|   -6.144929|   -8.119887|    0.824242|    0.012017|
|        5330|   -6.149159|   -8.126743|    0.824242|    0.012017|
|        5331|   -6.153444|   -8.133681|    0.824242|    0.012017|
|        5332|   -6.157743|   -8.140691|    0.824242|    0.012017|
|        5333|   -6.162010|   -8.147756|    0.824242|    0.012017|
|        5334|   -6.166201|   -8.154859|    0.824243|    0.012018|
|        5335|   -6.170274|   -8.161985|    0.824243|    0.012018|
|        5336|   -6.174189|   -8.169115|    0.824243|    0.012018|
|        5337|   -6.177912|   -8.176232|    0.824243|    0.012018|
|        5338|   -6.181411|   -8.183319|    0.824243|    0.012018|
|        5339|   -6.184663|   -8.190364|    0.824243|    0.012018|
|        5340|   -6.187653|   -8.197358|    0.824243|    0.012018|
|        5341|   -6.190374|   -8.204293|    0.824244|    0.012018|
|        5342|   -6.192826|   -8.211165|    0.824244|    0.012018|
|        5343|   -6.195019|   -8.217977|    0.824244|    0.012018|
|        5344|   -6.196972|   -8.224725|    0.824244|    0.012018|
|        5345|   -6.198709|   -8.231407|    0.824244|    0.012018|
|        5346|   -6.200263|   -8.238024|    0.824244|    0.012018|
|        5347|   -6.201670|   -8.244577|    0.824244|    0.012019|
|        5348|   -6.202973|   -8.251069|    0.824244|    0.012019|
|        5349|   -6.204215|   -8.257503|    0.824245|    0.012019|
|        5350|   -6.205439|   -8.263885|    0.824245|    0.012019|
|        5351|   -6.206692|   -8.270218|    0.824245|    0.012019|
|        5352|   -6.208015|   -8.276504|    0.824245|    0.012019|
|        5353|   -6.209451|   -8.282746|    0.824245|    0.012019|
|        5354|   -6.211039|   -8.288944|    0.824245|    0.012019|
|        5355|   -6.212815|   -8.295098|    0.824245|    0.012019|
|        5356|   -6.214810|   -8.301205|    0.824245|    0.012019|
|        5357|   -6.217052|   -8.307265|    0.824245|    0.012019|
|        5358|   -6.219565|   -8.313274|    0.824245|    0.012019|
|        5359|   -6.222367|   -8.319228|    0.824245|    0.012019|
|        5360|   -6.225472|   -8.325124|    0.824245|    0.012019|
|        5361|   -6.228887|   -8.330957|    0.824245|    0.012019|
|        5362|   -6.232617|   -8.336724|    0.824245|    0.012019|
|        5363|   -6.236659|   -8.342418|    0.824245|    0.012019|
|        5364|   -6.241007|   -8.348035|    0.824245|    0.012019|
|        5365|   -6.245650|   -8.353568|    0.824245|    0.012019|
|        5366|   -6.250569|   -8.359010|    0.824245|    0.012019|
|        5367|   -6.255744|   -8.364355|    0.824245|    0.012019|
|        5368|   -6.261147|   -8.369596|    0.824245|    0.012019|
|        5369|   -6.266748|   -8.374729|    0.824245|    0.012019|
|        5370|   -6.272511|   -8.379750|    0.824245|    0.012019|
|        5371|   -6.278396|   -8.384653|    0.824245|    0.012019|
|        5372|   -6.284360|   -8.389439|    0.824245|    0.012019|
|        5373|   -6.290357|   -8.394106|    0.824245|    0.012019|
|        5374|   -6.296338|   -8.398656|    0.824245|    0.012019|
|        5375|   -6.302253|   -8.403090|    0.824245|    0.012019|
|        5376|   -6.308052|   -8.407414|    0.824245|    0.012018|
|        5377|   -6.313686|   -8.411632|    0.824245|    0.012018|
|        5378|   -6.319106|   -8.415752|    0.824245|    0.012018|
|        5379|   -6.324269|   -8.419781|    0.824245|    0.012018|
|        5380|   -6.329135|   -8.423730|    0.824245|    0.012018|
|        5381|   -6.333669|   -8.427610|    0.824245|    0.012018|
|        5382|   -6.337844|   -8.431431|    0.824245|    0.012018|
|        5383|   -6.341639|   -8.435207|    0.824245|    0.012018|
|        5384|   -6.345042|   -8.438949|    0.824245|    0.012018|
|        5385|   -6.348045|   -8.442670|    0.824245|    0.012018|
|        5386|   -6.350653|   -8.446383|    0.824245|    0.012018|
|        5387|   -6.352873|   -8.450098|    0.824245|    0.012018|
|        5388|   -6.354722|   -8.453825|    0.824245|    0.012017|
|        5389|   -6.356218|   -8.457572|    0.824245|    0.012017|
|        5390|   -6.357387|   -8.461347|    0.824245|    0.012017|
|        5391|   -6.358256|   -8.465153|    0.824245|    0.012017|
|        5392|   -6.358853|   -8.468992|    0.824245|    0.012017|
|        5393|   -6.359207|   -8.472865|    0.824246|    0.012017|
|        5394|   -6.359349|   -8.476770|    0.824246|    0.012017|
|        5395|   -6.359305|   -8.480700|    0.824246|    0.012017|
|        5396|   -6.359103|   -8.484651|    0.824246|    0.012017|
|        5397|   -6.358765|   -8.488616|    0.824246|    0.012017|
|        5398|   -6.358312|   -8.492585|    0.824246|    0.012016|
|        5399|   -6.357764|   -8.496547|    0.824246|    0.012016|
|        5400|   -6.357134|   -8.500489|    0.824246|    0.012016|
|        5401|   -6.356438|   -8.504395|    0.824247|    0.012016|
|        5402|   -6.355684|   -8.508252|    0.824247|    0.012016|
|        5403|   -6.354883|   -8.512042|    0.824247|    0.012016|
|        5404|   -6.354040|   -8.515753|    0.824247|    0.012016|
|        5405|   -6.353161|   -8.519370|    0.824247|    0.012016|
|        5406|   -6.352250|   -8.522884|    0.824247|    0.012016|
|        5407|   -6.351309|   -8.526286|    0.824248|    0.012016|
|        5408|   -6.350342|   -8.529568|    0.824248|    0.012016|
|        5409|   -6.349349|   -8.532726|    0.824248|    0.012015|
|        5410|   -6.348334|   -8.535757|    0.824248|    0.012015|
|        5411|   -6.347298|   -8.538659|    0.824248|    0.012015|
|        5412|   -6.346243|   -8.541433|    0.824248|    0.012015|
|        5413|   -6.345172|   -8.544080|    0.824249|    0.012015|
|        5414|   -6.344089|   -8.546602|    0.824249|    0.012015|
|        5415|   -6.342997|   -8.549000|    0.824249|    0.012015|
|        5416|   -6.341900|   -8.551278|    0.824249|    0.012015|
|        5417|   -6.340804|   -8.553436|    0.824249|    0.012015|
|        5418|   -6.339714|   -8.555476|    0.824249|    0.012015|
|        5419|   -6.338637|   -8.557398|    0.824250|    0.012015|
|        5420|   -6.337580|   -8.559202|    0.824250|    0.012015|
|        5421|   -6.336551|   -8.560886|    0.824250|    0.012015|
|        5422|   -6.335560|   -8.562448|    0.824250|    0.012015|
|        5423|   -6.334615|   -8.563883|    0.824250|    0.012015|
|        5424|   -6.333727|   -8.565190|    0.824250|    0.012015|
|        5425|   -6.332907|   -8.566363|    0.824250|    0.012015|
|        5426|   -6.332167|   -8.567399|    0.824250|    0.012015|
|        5427|   -6.331519|   -8.568295|    0.824250|    0.012015|
|        5428|   -6.330977|   -8.569048|    0.824251|    0.012015|
|        5429|   -6.330553|   -8.569658|    0.824251|    0.012015|
|        5430|   -6.330263|   -8.570123|    0.824251|    0.012015|
|        5431|   -6.330120|   -8.570448|    0.824251|    0.012015|
|        5432|   -6.330139|   -8.570634|    0.824251|    0.012015|
|        5433|   -6.330334|   -8.570689|    0.824251|    0.012015|
|        5434|   -6.330720|   -8.570619|    0.824251|    0.012015|
|        5435|   -6.331310|   -8.570436|    0.824251|    0.012015|
|        5436|   -6.332117|   -8.570149|    0.824251|    0.012015|
|        5437|   -6.333155|   -8.569773|    0.824251|    0.012015|
|        5438|   -6.334433|   -8.569321|    0.824251|    0.012015|
|        5439|   -6.335964|   -8.568809|    0.824251|    0.012015|
|        5440|   -6.337754|   -8.568252|    0.824251|    0.012015|
|        5441|   -6.339811|   -8.567666|    0.824251|    0.012015|
|        5442|   -6.342140|   -8.567066|    0.824251|    0.012015|
|        5443|   -6.344744|   -8.566469|    0.824251|    0.012015|
|        5444|   -6.347622|   -8.565887|    0.824251|    0.012015|
|        5445|   -6.350773|   -8.565334|    0.824251|    0.012015|
|        5446|   -6.354191|   -8.564822|    0.824251|    0.012015|
|        5447|   -6.357867|   -8.564363|    0.824251|    0.012015|
|        5448|   -6.361791|   -8.563964|    0.824251|    0.012015|
|        5449|   -6.365948|   -8.563631|    0.824251|    0.012015|
|        5450|   -6.370318|   -8.563370|    0.824251|    0.012015|
|        5451|   -6.374879|   -8.563187|    0.824251|    0.012015|
|        5452|   -6.379607|   -8.563086|    0.824251|    0.012016|
|        5453|   -6.384471|   -8.563069|    0.824251|    0.012016|
|        5454|   -6.389440|   -8.563133|    0.824251|    0.012016|
|        5455|   -6.394476|   -8.563276|    0.824251|    0.012016|
|        5456|   -6.399542|   -8.563495|    0.824251|    0.012016|
|        5457|   -6.404595|   -8.563786|    0.824251|    0.012016|
|        5458|   -6.409592|   -8.564143|    0.824251|    0.012016|
|        5459|   -6.414488|   -8.564564|    0.824251|    0.012016|
|        5460|   -6.419237|   -8.565042|    0.824251|    0.012016|
|        5461|   -6.423795|   -8.565571|    0.824251|    0.012016|
|        5462|   -6.428117|   -8.566148|    0.824250|    0.012016|
|        5463|   -6.432163|   -8.566768|    0.824250|    0.012016|
|        5464|   -6.435894|   -8.567425|    0.824250|    0.012016|
|        5465|   -6.439278|   -8.568115|    0.824250|    0.012017|
|        5466|   -6.442286|   -8.568834|    0.824250|    0.012017|
|        5467|   -6.444898|   -8.569579|    0.824250|    0.012017|
|        5468|   -6.447098|   -8.570345|    0.824250|    0.012017|
|        5469|   -6.448880|   -8.571130|    0.824250|    0.012017|
|        5470|   -6.450245|   -8.571929|    0.824249|    0.012017|
|        5471|   -6.451199|   -8.572742|    0.824249|    0.012017|
|        5472|   -6.451760|   -8.573564|    0.824249|    0.012017|
|        5473|   -6.451946|   -8.574395|    0.824249|    0.012017|
|        5474|   -6.451787|   -8.575231|    0.824249|    0.012017|
|        5475|   -6.451313|   -8.576073|    0.824249|    0.012017|
|        5476|   -6.450559|   -8.576918|    0.824249|    0.012017|
|        5477|   -6.449565|   -8.577765|    0.824248|    0.012017|
|        5478|   -6.448369|   -8.578614|    0.824248|    0.012017|
|        5479|   -6.447012|   -8.579464|    0.824248|    0.012017|
|        5480|   -6.445535|   -8.580316|    0.824248|    0.012017|
|        5481|   -6.443977|   -8.581168|    0.824248|    0.012017|
|        5482|   -6.442376|   -8.582023|    0.824248|    0.012017|
|        5483|   -6.440768|   -8.582880|    0.824247|    0.012017|
|        5484|   -6.439188|   -8.583740|    0.824247|    0.012017|
|        5485|   -6.437667|   -8.584606|    0.824247|    0.012017|
|        5486|   -6.436232|   -8.585479|    0.824247|    0.012017|
|        5487|   -6.434912|   -8.586361|    0.824247|    0.012017|
|        5488|   -6.433727|   -8.587255|    0.824247|    0.012017|
|        5489|   -6.432699|   -8.588163|    0.824246|    0.012017|
|        5490|   -6.431845|   -8.589089|    0.824246|    0.012017|
|        5491|   -6.431181|   -8.590037|    0.824246|    0.012017|
|        5492|   -6.430717|   -8.591010|    0.824246|    0.012017|
|        5493|   -6.430466|   -8.592013|    0.824246|    0.012017|
|        5494|   -6.430435|   -8.593050|    0.824246|    0.012017|
|        5495|   -6.430630|   -8.594125|    0.824246|    0.012017|
|        5496|   -6.431054|   -8.595244|    0.824246|    0.012017|
|        5497|   -6.431712|   -8.596412|    0.824245|    0.012017|
|        5498|   -6.432603|   -8.597633|    0.824245|    0.012017|
|        5499|   -6.433728|   -8.598912|    0.824245|    0.012003|
+-----------------------------------------------------------------------+
|Fixed CL Mode (Finite Difference)       |Value                         |
+-----------------------------------------------------------------------+
|Delta CL / Delta AoA                    |0.245693                      |
|Delta CD / Delta CL                     |0.0184959                     |
|Delta CMz / Delta CL                    |0.00989176                    |
+-----------------------------------------------------------------------+
Writing Flow Meta-Data file: flow.meta

----------------------------- Solver Exit -------------------------------

Maximum number of iterations reached (ITER = 5500) before convergence.
+-----------------------------------------------------------------------+
|      Convergence Field     |     Value    |   Criterion  |  Converged |
+-----------------------------------------------------------------------+
|                    rms[Rho]|      -6.43373|         < -12|          No|
+-----------------------------------------------------------------------+
-------------------------------------------------------------------------

--------------------------- Finalizing Solver ---------------------------
Deleted CNumerics container.
Deleted CIntegration container.
Deleted CSolver container.
Deleted CIteration container.
Deleted CInterface container.
Deleted CGeometry container.
Deleted CFreeFormDefBox class.
Deleted CSurfaceMovement class.
Deleted CVolumetricMovement class.
Deleted CConfig container.
Deleted nInst container.
Deleted COutput class.
-------------------------------------------------------------------------

------------------------- Exit Success (SU2_CFD) ------------------------


-------------------------------------------------------------------------
|    ___ _   _ ___                                                      |
|   / __| | | |_  )   Release 8.0.0 "Harrier"                           |
|   \__ \ |_| |/ /                                                      |
|   |___/\___//___|   Suite (Solution Exporting Code)                   |
|                                                                       |
-------------------------------------------------------------------------
| SU2 Project Website: https://su2code.github.io                        |
|                                                                       |
| The SU2 Project is maintained by the SU2 Foundation                   |
| (http://su2foundation.org)                                            |
-------------------------------------------------------------------------
| Copyright 2012-2023, SU2 Contributors                                 |
|                                                                       |
| SU2 is free software; you can redistribute it and/or                  |
| modify it under the terms of the GNU Lesser General Public            |
| License as published by the Free Software Foundation; either          |
| version 2.1 of the License, or (at your option) any later version.    |
|                                                                       |
| SU2 is distributed in the hope that it will be useful,                |
| but WITHOUT ANY WARRANTY; without even the implied warranty of        |
| MERCHANTABILITY or FITNESS FOR A PARTICULAR PURPOSE. See the GNU      |
| Lesser General Public License for more details.                       |
|                                                                       |
| You should have received a copy of the GNU Lesser General Public      |
| License along with SU2. If not, see <http://www.gnu.org/licenses/>.   |
-------------------------------------------------------------------------

----------------- Physical Case Definition ( Zone 0 ) -------------------
Input mesh file name: mesh_RAE2822_turb_deform.su2

-------------------- Output Information ( Zone 0 ) ----------------------
The tabular file format is CSV (.csv).
Flow variables file name: flow.

------------- Config File Boundary Information ( Zone 0 ) ---------------
+-----------------------------------------------------------------------+
|                        Marker Type|                        Marker Name|
+-----------------------------------------------------------------------+
|                          Far-field|                           FARFIELD|
+-----------------------------------------------------------------------+
|                     Heat flux wall|                            AIRFOIL|
+-----------------------------------------------------------------------+
Two dimensional problem.
13937 grid points before partitioning.
22842 volume elements before partitioning.
2 surface markers.
192 boundary elements in index 0 (Marker = AIRFOIL).
40 boundary elements in index 1 (Marker = FARFIELD).
Executing the partitioning functions.
Building the graph adjacency structure.
Calling ParMETIS... graph partitioning complete (831 edge cuts).
Distributing ParMETIS coloring.
Rebalancing vertices.
Rebalancing volume element connectivity.
Rebalancing markers and surface elements.
14875 vertices including ghost points. 
23674 interior elements including halo cells. 
18780 triangles.
4894 quadrilaterals.
Establishing MPI communication patterns.
Identify vertices.
Storing a mapping from global to local point index.

------------------------- Solution Postprocessing -----------------------
Reading and storing the solution from restart_flow.
Volume output fields: COORDINATES, SOLUTION
  Info: Ignoring the following screen output fields:
  RMS_DENSITY, RMS_NU_TILDE, LIFT, DRAG
Screen output fields: INNER_ITER
  Info: Ignoring the following history output groups:
  RMS_RES, AERO_COEFF
History output group(s): ITER
Warning: No (valid) fields chosen for convergence monitoring. Convergence monitoring inactive.
Warning: No (valid) fields chosen for time convergence monitoring. Time convergence monitoring inactive.
|Paraview                           |flow.vtu                           |
|Paraview surface                   |surface_flow.vtu                   |
|CSV file                           |surface_flow.csv                   |

------------------------- Finalize Solver -------------------------
Deleted CGeometry container.
Deleted CSolver class.
Deleted CConfig container.
Deleted COutput class.

Completed in 0.015194 seconds on 6 cores.

------------------------- Exit Success (SU2_SOL) ------------------------

