
-------------------------------------------------------------------------
|    ___ _   _ ___                                                      |
|   / __| | | |_  )   Release 8.0.0 "Harrier"                           |
|   \__ \ |_| |/ /                                                      |
|   |___/\___//___|   Suite (Computational Fluid Dynamics Code)         |
|                                                                       |
-------------------------------------------------------------------------
| SU2 Project Website: https://su2code.github.io                        |
|                                                                       |
| The SU2 Project is maintained by the SU2 Foundation                   |
| (http://su2foundation.org)                                            |
-------------------------------------------------------------------------
| Copyright 2012-2023, SU2 Contributors                                 |
|                                                                       |
| SU2 is free software; you can redistribute it and/or                  |
| modify it under the terms of the GNU Lesser General Public            |
| License as published by the Free Software Foundation; either          |
| version 2.1 of the License, or (at your option) any later version.    |
|                                                                       |
| SU2 is distributed in the hope that it will be useful,                |
| but WITHOUT ANY WARRANTY; without even the implied warranty of        |
| MERCHANTABILITY or FITNESS FOR A PARTICULAR PURPOSE. See the GNU      |
| Lesser General Public License for more details.                       |
|                                                                       |
| You should have received a copy of the GNU Lesser General Public      |
| License along with SU2. If not, see <http://www.gnu.org/licenses/>.   |
-------------------------------------------------------------------------

Parsing config file for zone 0

----------------- Physical Case Definition ( Zone 0 ) -------------------
Compressible RANS equations.
Turbulence model: Spalart-Allmaras-noft2
Hybrid RANS/LES: No Hybrid RANS/LES
Mach number: 0.734.
Angle of attack (AoA): 2.31 deg, and angle of sideslip (AoS): 0 deg.
Reynolds number: 6.5e+06. Reference length 1.
Fixed CL mode, target value: 0.824.
Reading and writing binary SU2 native restart files.
Read flow solution from: solution_flow.dat.
Dimensional simulation.
The reference area is 1 m^2.
The semi-span will be computed using the max y(3D) value.
The reference length is 1 m.
Reference origin for moment evaluation is (0.25, 0, 0).
Surface(s) where the force coefficients are evaluated: AIRFOIL.

Surface(s) plotted in the output file: AIRFOIL.
Surface(s) affected by the design variables: AIRFOIL.
Input mesh file name: mesh_RAE2822_turb_deform.su2

--------------- Space Numerical Integration ( Zone 0 ) ------------------
Jameson-Schmidt-Turkel scheme (2nd order in space) for the flow inviscid terms.
JST viscous coefficients (2nd & 4th): 0.5, 0.02.
The method includes a grid stretching correction (p = 0.3).
Scalar upwind solver for the turbulence model.
First order integration in space.
Average of gradients with correction (viscous flow terms).
Average of gradients with correction (viscous turbulence terms).
Gradient for viscous and source terms: inverse-distance weighted Least-Squares.

--------------- Time Numerical Integration  ( Zone 0 ) ------------------
Local time stepping (steady state simulation).
Euler implicit method for the flow equations.
FGMRES is used for solving the linear system.
Using a ILU(0) preconditioning.
Convergence criteria of the linear solver: 1e-06.
Max number of linear iterations: 10.
No CFL adaptation.
Courant-Friedrichs-Lewy number:       10
Euler implicit time integration for the turbulence model.

------------------ Convergence Criteria  ( Zone 0 ) ---------------------
Maximum number of solver subiterations: 5500.
Begin convergence monitoring at iteration 10.
Residual minimum value: 1e-12.
Cauchy series min. value: 1e-06.
Number of Cauchy elements: 100.
Begin windowed time average at iteration 0.

-------------------- Output Information ( Zone 0 ) ----------------------
File writing frequency: 
+------------------------------------+
|                     File| Frequency|
+------------------------------------+
|                  RESTART|     10000|
|                 PARAVIEW|     10000|
|         SURFACE_PARAVIEW|     10000|
|              SURFACE_CSV|     10000|
+------------------------------------+
Writing the convergence history file every 1 inner iterations.
Writing the screen convergence history every 1 inner iterations.
The tabular file format is CSV (.csv).
Convergence history file name: history_direct.
Forces breakdown file name: forces_breakdown.dat.
Surface file name: surface_flow.
Volume file name: flow.
Restart file name: restart_flow.dat.

------------- Config File Boundary Information ( Zone 0 ) ---------------
+-----------------------------------------------------------------------+
|                        Marker Type|                        Marker Name|
+-----------------------------------------------------------------------+
|                          Far-field|                           FARFIELD|
+-----------------------------------------------------------------------+
|                     Heat flux wall|                            AIRFOIL|
+-----------------------------------------------------------------------+

-------------------- Output Preprocessing ( Zone 0 ) --------------------

WARNING: SURFACE_PRESSURE_DROP can only be computed for at least 2 surfaces (outlet, inlet, ...)

Screen output fields: INNER_ITER, RMS_DENSITY, RMS_NU_TILDE, LIFT, DRAG
History output group(s): ITER, RMS_RES, AERO_COEFF
Convergence field(s): RMS_DENSITY
Warning: No (valid) fields chosen for time convergence monitoring. Time convergence monitoring inactive.
Volume output fields: COORDINATES, SOLUTION, PRIMITIVE

------------------- Geometry Preprocessing ( Zone 0 ) -------------------
Two dimensional problem.
13937 grid points before partitioning.
22842 volume elements before partitioning.
2 surface markers.
192 boundary elements in index 0 (Marker = AIRFOIL).
40 boundary elements in index 1 (Marker = FARFIELD).
Executing the partitioning functions.
Building the graph adjacency structure.
Calling ParMETIS... graph partitioning complete (831 edge cuts).
Distributing ParMETIS coloring.
Rebalancing vertices.
Rebalancing volume element connectivity.
Rebalancing markers and surface elements.
14875 vertices including ghost points. 
23674 interior elements including halo cells. 
18780 triangles.
4894 quadrilaterals.
Establishing MPI communication patterns.
Setting point connectivity.
Renumbering points (Reverse Cuthill McKee Ordering).
Recomputing point connectivity.
Setting element connectivity.
Checking the numerical grid orientation.
All volume elements are correctly orientend.
All surface elements are correctly orientend.
Identifying edges and vertices.
Setting the control volume structure.
Area of the computational grid: 32209.9.
Searching for the closest normal neighbors to the surfaces.
Storing a mapping from global to local point index.
Compute the surface curvature.
Max K: 158.573. Mean K: 7.30753. Standard deviation K: 21.6882.
Checking for periodicity.
Computing mesh quality statistics for the dual control volumes.
+--------------------------------------------------------------+
|           Mesh Quality Metric|        Minimum|        Maximum|
+--------------------------------------------------------------+
|    Orthogonality Angle (deg.)|        75.2882|        89.9991|
|     CV Face Area Aspect Ratio|        1.00141|        3358.34|
|           CV Sub-Volume Ratio|        1.00058|        1210.87|
+--------------------------------------------------------------+
Finding max control volume width.
Communicating number of neighbors.
Wetted area = 2.02344 m.
Area projection in the x-plane = 0.12395 m, y-plane = 0.995873 m.
Max. coordinate in the x-direction = 1 m, y-direction = 0.0635474 m.
Min. coordinate in the x-direction = 0 m, y-direction = -0.0594161 m.
Computing wall distances.

-------------------- Solver Preprocessing ( Zone 0 ) --------------------
WARNING: AoA in the solution file (2.78443 deg.) +
         AoA offset in mesh file (0 deg.) = 2.78443 deg.
WARNING: SU2 will use the dCD/dCL provided in the direct solution file: 0.0211275.
WARNING: SU2 will use the dCMz/dCL provided in the direct solution file: 0.0237734.
Viscous flow: Computing pressure using the ideal gas law
based on the free-stream temperature and a density computed
from the Reynolds number.
Force coefficients computed using free-stream values.

-- Models:
+------------------------------------------------------------------------------+
|          Viscosity Model|        Conductivity Model|              Fluid Model|
+------------------------------------------------------------------------------+
|               SUTHERLAND|          CONSTANT_PRANDTL|             STANDARD_AIR|
+------------------------------------------------------------------------------+
-- Fluid properties:
+------------------------------------------------------------------------------+
|                  Name|    Dim. value|    Ref. value|      Unit|Non-dim. value|
+------------------------------------------------------------------------------+
|        Ref. Viscosity|     1.716e-05|             1|   N.s/m^2|     1.716e-05|
|      Sutherland Temp.|        273.15|             1|         K|        273.15|
|     Sutherland Const.|         110.4|             1|         K|         110.4|
+------------------------------------------------------------------------------+
|        Prandtl (Lam.)|             -|             -|         -|          0.71|
|       Prandtl (Turb.)|             -|             -|         -|           0.9|
+------------------------------------------------------------------------------+
|          Gas Constant|       287.058|             1|  N.m/kg.K|       287.058|
|      Spec. Heat Ratio|             -|             -|         -|           1.4|
+------------------------------------------------------------------------------+
-- Initial and free-stream conditions:
+------------------------------------------------------------------------------+
|                  Name|    Dim. value|    Ref. value|      Unit|Non-dim. value|
+------------------------------------------------------------------------------+
|       Static Pressure|         38515|             1|        Pa|         38515|
|               Density|      0.465631|             1|    kg/m^3|      0.465631|
|           Temperature|        288.15|             1|         K|        288.15|
|          Total Energy|        237984|             1|   m^2/s^2|        237984|
|            Velocity-X|       249.483|             1|       m/s|       249.483|
|            Velocity-Y|       12.1338|             1|       m/s|       12.1338|
|    Velocity Magnitude|       249.778|             1|       m/s|       249.778|
+------------------------------------------------------------------------------+
|             Viscosity|    1.7893e-05|             1|   N.s/m^2|    1.7893e-05|
|          Conductivity|             -|             1|   W/m^2.K|             -|
|     Turb. Kin. Energy|       233.959|             1|   m^2/s^2|       233.959|
|     Spec. Dissipation|        608834|             1|       1/s|        608834|
+------------------------------------------------------------------------------+
|           Mach Number|             -|             -|         -|         0.734|
|       Reynolds Number|             -|             -|         -|       6.5e+06|
+------------------------------------------------------------------------------+
Initialize Jacobian structure (Navier-Stokes). MG level: 0.
Initialize Jacobian structure (SA model).

------------------- Numerics Preprocessing ( Zone 0 ) -------------------

----------------- Integration Preprocessing ( Zone 0 ) ------------------

------------------- Iteration Preprocessing ( Zone 0 ) ------------------
Euler/Navier-Stokes/RANS fluid iteration.

------------------------------ Begin Solver -----------------------------

Simulation Run using the Single-zone Driver
WARNING: SU2 was not compiled for an AVX-capable architecture. Performance could be better,
         see https://su2code.github.io/docs_v7/Build-SU2-Linux-MacOS/#compiler-optimizations
+----------------------------------------------------------------+
|  Inner_Iter|    rms[Rho]|     rms[nu]|          CL|          CD|
+----------------------------------------------------------------+
|           0|   -4.155879|   -5.387901|    0.824160|    0.011963|
|           1|   -4.203933|   -5.477099|    0.824257|    0.011871|
|           2|   -4.253178|   -5.587100|    0.824308|    0.011832|
|           3|   -4.285717|   -5.713335|    0.824323|    0.011823|
|           4|   -4.302291|   -5.848608|    0.824312|    0.011825|
|           5|   -4.308593|   -5.970585|    0.824287|    0.011828|
|           6|   -4.309939|   -6.042021|    0.824259|    0.011828|
|           7|   -4.309553|   -6.049973|    0.824232|    0.011825|
|           8|   -4.308516|   -6.027012|    0.824208|    0.011820|
|           9|   -4.306506|   -6.002035|    0.824187|    0.011813|
|          10|   -4.302671|   -5.982460|    0.824166|    0.011806|
|          11|   -4.296294|   -5.965217|    0.824143|    0.011799|
|          12|   -4.287102|   -5.945589|    0.824117|    0.011793|
|          13|   -4.275290|   -5.921788|    0.824088|    0.011787|
|          14|   -4.261406|   -5.895570|    0.824054|    0.011782|
|          15|   -4.246235|   -5.870097|    0.824018|    0.011780|
|          16|   -4.230696|   -5.847770|    0.823979|    0.011780|
|          17|   -4.215731|   -5.829436|    0.823940|    0.011782|
|          18|   -4.202190|   -5.814560|    0.823901|    0.011787|
|          19|   -4.190707|   -5.801786|    0.823865|    0.011795|
|          20|   -4.181609|   -5.789573|    0.823834|    0.011806|
|          21|   -4.174872|   -5.776726|    0.823809|    0.011820|
|          22|   -4.170145|   -5.762853|    0.823792|    0.011837|
|          23|   -4.166843|   -5.748392|    0.823783|    0.011857|
|          24|   -4.164292|   -5.734392|    0.823783|    0.011879|
|          25|   -4.161891|   -5.722133|    0.823791|    0.011903|
|          26|   -4.159246|   -5.712855|    0.823806|    0.011928|
|          27|   -4.156224|   -5.707542|    0.823824|    0.011953|
|          28|   -4.152916|   -5.706751|    0.823845|    0.011978|
|          29|   -4.149539|   -5.710867|    0.823865|    0.012003|
|          30|   -4.146327|   -5.719879|    0.823882|    0.012025|
|          31|   -4.143451|   -5.733479|    0.823894|    0.012046|
|          32|   -4.140988|   -5.751048|    0.823897|    0.012064|
|          33|   -4.138923|   -5.771603|    0.823893|    0.012080|
|          34|   -4.137177|   -5.793798|    0.823878|    0.012093|
|          35|   -4.135642|   -5.816043|    0.823854|    0.012104|
|          36|   -4.134206|   -5.836676|    0.823820|    0.012112|
|          37|   -4.132788|   -5.854249|    0.823777|    0.012119|
|          38|   -4.131338|   -5.867992|    0.823727|    0.012124|
|          39|   -4.129853|   -5.877569|    0.823671|    0.012129|
|          40|   -4.128367|   -5.883193|    0.823610|    0.012133|
|          41|   -4.126952|   -5.885277|    0.823547|    0.012138|
|          42|   -4.125697|   -5.884234|    0.823482|    0.012143|
|          43|   -4.124693|   -5.880231|    0.823417|    0.012149|
|          44|   -4.124022|   -5.873423|    0.823354|    0.012156|
|          45|   -4.123734|   -5.864063|    0.823293|    0.012163|
|          46|   -4.123837|   -5.852627|    0.823235|    0.012172|
|          47|   -4.124311|   -5.839843|    0.823180|    0.012181|
|          48|   -4.125107|   -5.826616|    0.823128|    0.012192|
|          49|   -4.126142|   -5.813870|    0.823079|    0.012202|
|          50|   -4.127327|   -5.802423|    0.823033|    0.012213|
|          51|   -4.128584|   -5.792886|    0.822989|    0.012224|
|          52|   -4.129866|   -5.785642|    0.822946|    0.012234|
|          53|   -4.131135|   -5.780833|    0.822905|    0.012243|
|          54|   -4.132385|   -5.778381|    0.822864|    0.012252|
|          55|   -4.133629|   -5.778051|    0.822823|    0.012260|
|          56|   -4.134907|   -5.779476|    0.822781|    0.012266|
|          57|   -4.136265|   -5.782206|    0.822738|    0.012271|
|          58|   -4.137726|   -5.785778|    0.822693|    0.012274|
|          59|   -4.139334|   -5.789702|    0.822648|    0.012277|
|          60|   -4.141126|   -5.793584|    0.822602|    0.012277|
|          61|   -4.143120|   -5.797131|    0.822554|    0.012277|
|          62|   -4.145319|   -5.800156|    0.822506|    0.012276|
|          63|   -4.147717|   -5.802582|    0.822457|    0.012273|
|          64|   -4.150313|   -5.804411|    0.822409|    0.012270|
|          65|   -4.153096|   -5.805707|    0.822361|    0.012266|
|          66|   -4.156046|   -5.806561|    0.822315|    0.012262|
|          67|   -4.159145|   -5.807073|    0.822269|    0.012257|
|          68|   -4.162374|   -5.807321|    0.822226|    0.012251|
|          69|   -4.165721|   -5.807363|    0.822184|    0.012245|
|          70|   -4.169175|   -5.807250|    0.822145|    0.012240|
|          71|   -4.172727|   -5.807015|    0.822108|    0.012233|
|          72|   -4.176371|   -5.806675|    0.822074|    0.012227|
|          73|   -4.180098|   -5.806251|    0.822043|    0.012221|
|          74|   -4.183902|   -5.805758|    0.822013|    0.012214|
|          75|   -4.187774|   -5.805210|    0.821986|    0.012208|
|          76|   -4.191718|   -5.804618|    0.821961|    0.012202|
|          77|   -4.195722|   -5.803988|    0.821938|    0.012195|
|          78|   -4.199778|   -5.803330|    0.821916|    0.012189|
|          79|   -4.203883|   -5.802653|    0.821896|    0.012182|
|          80|   -4.208045|   -5.801963|    0.821877|    0.012175|
|          81|   -4.212273|   -5.801274|    0.821858|    0.012169|
|          82|   -4.216582|   -5.800599|    0.821839|    0.012162|
|          83|   -4.220993|   -5.799957|    0.821821|    0.012156|
|          84|   -4.225522|   -5.799375|    0.821803|    0.012149|
|          85|   -4.230192|   -5.798880|    0.821784|    0.012142|
|          86|   -4.235007|   -5.798500|    0.821765|    0.012135|
|          87|   -4.239974|   -5.798261|    0.821746|    0.012129|
|          88|   -4.245087|   -5.798188|    0.821726|    0.012122|
|          89|   -4.250321|   -5.798302|    0.821705|    0.012115|
|          90|   -4.255637|   -5.798617|    0.821684|    0.012108|
|          91|   -4.260981|   -5.799144|    0.821662|    0.012101|
|          92|   -4.266287|   -5.799865|    0.821639|    0.012094|
|          93|   -4.271484|   -5.800778|    0.821616|    0.012087|
|          94|   -4.276498|   -5.801881|    0.821593|    0.012080|
|          95|   -4.281259|   -5.803166|    0.821569|    0.012072|
|          96|   -4.285706|   -5.804615|    0.821545|    0.012065|
|          97|   -4.289790|   -5.806210|    0.821522|    0.012058|
|          98|   -4.293480|   -5.807932|    0.821498|    0.012050|
|          99|   -4.296763|   -5.809762|    0.821475|    0.012043|
|         100|   -4.299644|   -5.811682|    0.821453|    0.012036|
|         101|   -4.302144|   -5.813678|    0.821428|    0.012211|
+-----------------------------------------------------------------------+
|Fixed CL Mode                           |Value                         |
+-----------------------------------------------------------------------+
|Current CL                              |0.821428                      |
|Target CL                               |0.824                         |
|Previous AOA                            |2.78443                       |
|Changed AoA by                          |0.0127375                     |
+-----------------------------------------------------------------------+
+----------------------------------------------------------------+
|  Inner_Iter|    rms[Rho]|     rms[nu]|          CL|          CD|
+----------------------------------------------------------------+
|         102|   -2.088286|   -5.780442|    0.821407|    0.012204|
|         103|   -2.472865|   -5.799872|    0.821387|    0.012197|
|         104|   -2.717735|   -5.807106|    0.821368|    0.012191|
|         105|   -2.797585|   -5.811963|    0.821350|    0.012184|
|         106|   -2.852091|   -5.816008|    0.821333|    0.012179|
|         107|   -2.922704|   -5.819653|    0.821317|    0.012173|
|         108|   -3.010094|   -5.822961|    0.821303|    0.012168|
|         109|   -3.101418|   -5.825941|    0.821289|    0.012164|
|         110|   -3.179668|   -5.828636|    0.821277|    0.012160|
|         111|   -3.236013|   -5.831063|    0.821266|    0.012156|
|         112|   -3.272183|   -5.833240|    0.821255|    0.012153|
|         113|   -3.292445|   -5.835225|    0.821245|    0.012151|
|         114|   -3.301051|   -5.837096|    0.821236|    0.012149|
|         115|   -3.304086|   -5.838909|    0.821228|    0.012147|
|         116|   -3.308204|   -5.840691|    0.821220|    0.012147|
|         117|   -3.317778|   -5.842460|    0.821212|    0.012146|
|         118|   -3.333765|   -5.844240|    0.821204|    0.012146|
|         119|   -3.354290|   -5.846064|    0.821196|    0.012146|
|         120|   -3.376127|   -5.847959|    0.821189|    0.012147|
|         121|   -3.396538|   -5.849937|    0.821181|    0.012148|
|         122|   -3.414598|   -5.851996|    0.821172|    0.012149|
|         123|   -3.431145|   -5.854146|    0.821164|    0.012151|
|         124|   -3.447622|   -5.856382|    0.821155|    0.012153|
|         125|   -3.464951|   -5.858685|    0.821146|    0.012155|
|         126|   -3.483138|   -5.861050|    0.821137|    0.012157|
|         127|   -3.501499|   -5.863474|    0.821127|    0.012159|
|         128|   -3.519072|   -5.865958|    0.821117|    0.012162|
|         129|   -3.534949|   -5.868514|    0.821108|    0.012164|
|         130|   -3.548470|   -5.871160|    0.821098|    0.012167|
|         131|   -3.559347|   -5.873903|    0.821089|    0.012170|
|         132|   -3.567765|   -5.876742|    0.821080|    0.012174|
|         133|   -3.574397|   -5.879710|    0.821072|    0.012177|
|         134|   -3.580259|   -5.882826|    0.821064|    0.012181|
|         135|   -3.586448|   -5.886098|    0.821058|    0.012185|
|         136|   -3.593886|   -5.889541|    0.821053|    0.012189|
|         137|   -3.603156|   -5.893160|    0.821049|    0.012194|
|         138|   -3.614432|   -5.896953|    0.821047|    0.012198|
|         139|   -3.627474|   -5.900913|    0.821047|    0.012203|
|         140|   -3.641662|   -5.905052|    0.821048|    0.012209|
|         141|   -3.656086|   -5.909382|    0.821052|    0.012215|
|         142|   -3.669713|   -5.913905|    0.821058|    0.012221|
|         143|   -3.681643|   -5.918628|    0.821067|    0.012227|
|         144|   -3.691374|   -5.923538|    0.821078|    0.012234|
|         145|   -3.698972|   -5.928657|    0.821092|    0.012241|
|         146|   -3.705025|   -5.934014|    0.821109|    0.012248|
|         147|   -3.710439|   -5.939590|    0.821129|    0.012256|
|         148|   -3.716151|   -5.945399|    0.821153|    0.012264|
|         149|   -3.722907|   -5.951426|    0.821180|    0.012273|
|         150|   -3.731134|   -5.957659|    0.821211|    0.012281|
|         151|   -3.740922|   -5.964072|    0.821246|    0.012291|
|         152|   -3.752061|   -5.970646|    0.821285|    0.012300|
|         153|   -3.764130|   -5.977371|    0.821328|    0.012310|
|         154|   -3.776604|   -5.984226|    0.821375|    0.012320|
|         155|   -3.788973|   -5.991182|    0.821427|    0.012330|
|         156|   -3.800843|   -5.998202|    0.821482|    0.012340|
|         157|   -3.812001|   -6.005250|    0.821542|    0.012351|
|         158|   -3.822433|   -6.012301|    0.821606|    0.012362|
|         159|   -3.832285|   -6.019328|    0.821674|    0.012372|
|         160|   -3.841796|   -6.026285|    0.821746|    0.012383|
|         161|   -3.851228|   -6.033124|    0.821821|    0.012395|
|         162|   -3.860802|   -6.039804|    0.821900|    0.012406|
|         163|   -3.870671|   -6.046298|    0.821981|    0.012417|
|         164|   -3.880910|   -6.052593|    0.822064|    0.012428|
|         165|   -3.891533|   -6.058664|    0.822150|    0.012439|
|         166|   -3.902506|   -6.064489|    0.822236|    0.012450|
|         167|   -3.913780|   -6.070054|    0.822324|    0.012461|
|         168|   -3.925303|   -6.075345|    0.822411|    0.012471|
|         169|   -3.937032|   -6.080337|    0.822498|    0.012481|
|         170|   -3.948939|   -6.084997|    0.822584|    0.012491|
|         171|   -3.961000|   -6.089296|    0.822668|    0.012501|
|         172|   -3.973195|   -6.093203|    0.822749|    0.012510|
|         173|   -3.985496|   -6.096676|    0.822828|    0.012519|
|         174|   -3.997859|   -6.099676|    0.822902|    0.012527|
|         175|   -4.010226|   -6.102165|    0.822972|    0.012535|
|         176|   -4.022520|   -6.104099|    0.823037|    0.012543|
|         177|   -4.034649|   -6.105445|    0.823097|    0.012549|
|         178|   -4.046512|   -6.106186|    0.823151|    0.012556|
|         179|   -4.058002|   -6.106295|    0.823198|    0.012561|
|         180|   -4.069015|   -6.105771|    0.823239|    0.012566|
|         181|   -4.079449|   -6.104648|    0.823273|    0.012571|
|         182|   -4.089217|   -6.102970|    0.823300|    0.012574|
|         183|   -4.098240|   -6.100809|    0.823319|    0.012577|
|         184|   -4.106459|   -6.098254|    0.823332|    0.012580|
|         185|   -4.113835|   -6.095397|    0.823337|    0.012582|
|         186|   -4.120351|   -6.092323|    0.823336|    0.012583|
|         187|   -4.126012|   -6.089116|    0.823327|    0.012584|
|         188|   -4.130847|   -6.085924|    0.823312|    0.012584|
|         189|   -4.134908|   -6.082907|    0.823291|    0.012583|
|         190|   -4.138263|   -6.080111|    0.823264|    0.012582|
|         191|   -4.140996|   -6.077615|    0.823231|    0.012580|
|         192|   -4.143201|   -6.075499|    0.823193|    0.012578|
|         193|   -4.144975|   -6.073826|    0.823149|    0.012576|
|         194|   -4.146420|   -6.072657|    0.823102|    0.012573|
|         195|   -4.147632|   -6.072046|    0.823050|    0.012569|
|         196|   -4.148702|   -6.072018|    0.822995|    0.012565|
|         197|   -4.149714|   -6.072588|    0.822937|    0.012561|
|         198|   -4.150745|   -6.073765|    0.822876|    0.012556|
|         199|   -4.151862|   -6.075549|    0.822813|    0.012551|
|         200|   -4.153124|   -6.077934|    0.822747|    0.012546|
|         201|   -4.154581|   -6.080941|    0.822679|    0.012630|
+-----------------------------------------------------------------------+
|Fixed CL Mode                           |Value                         |
+-----------------------------------------------------------------------+
|Current CL                              |0.822679                      |
|Target CL                               |0.824                         |
|Previous AOA                            |2.79716                       |
|Changed AoA by                          |0.00626305                    |
+-----------------------------------------------------------------------+
+----------------------------------------------------------------+
|  Inner_Iter|    rms[Rho]|     rms[nu]|          CL|          CD|
+----------------------------------------------------------------+
|         202|   -2.396433|   -6.053984|    0.822612|    0.012624|
|         203|   -2.779005|   -6.072719|    0.822544|    0.012618|
|         204|   -3.018144|   -6.081537|    0.822475|    0.012612|
|         205|   -3.095122|   -6.088754|    0.822406|    0.012605|
|         206|   -3.148733|   -6.095656|    0.822338|    0.012598|
|         207|   -3.218293|   -6.102475|    0.822271|    0.012591|
|         208|   -3.304042|   -6.109265|    0.822205|    0.012584|
|         209|   -3.393754|   -6.115955|    0.822140|    0.012577|
|         210|   -3.471878|   -6.122537|    0.822077|    0.012570|
|         211|   -3.530527|   -6.128958|    0.822016|    0.012563|
|         212|   -3.570862|   -6.135168|    0.821957|    0.012555|
|         213|   -3.595804|   -6.141170|    0.821901|    0.012548|
|         214|   -3.608344|   -6.146981|    0.821847|    0.012541|
|         215|   -3.613930|   -6.152584|    0.821796|    0.012533|
|         216|   -3.619317|   -6.157962|    0.821749|    0.012526|
|         217|   -3.629314|   -6.163085|    0.821705|    0.012519|
|         218|   -3.645312|   -6.167952|    0.821665|    0.012512|
|         219|   -3.665793|   -6.172619|    0.821628|    0.012505|
|         220|   -3.687829|   -6.177054|    0.821596|    0.012498|
|         221|   -3.708910|   -6.181298|    0.821567|    0.012492|
|         222|   -3.728211|   -6.185383|    0.821542|    0.012486|
|         223|   -3.746516|   -6.189329|    0.821522|    0.012479|
|         224|   -3.765092|   -6.193134|    0.821506|    0.012474|
|         225|   -3.784613|   -6.196828|    0.821494|    0.012468|
|         226|   -3.804777|   -6.200439|    0.821486|    0.012463|
|         227|   -3.824569|   -6.204006|    0.821483|    0.012458|
|         228|   -3.842742|   -6.207569|    0.821484|    0.012453|
|         229|   -3.858243|   -6.211163|    0.821489|    0.012449|
|         230|   -3.870462|   -6.214835|    0.821498|    0.012445|
|         231|   -3.879345|   -6.218655|    0.821511|    0.012441|
|         232|   -3.885412|   -6.222623|    0.821528|    0.012438|
|         233|   -3.889653|   -6.226763|    0.821548|    0.012435|
|         234|   -3.893287|   -6.231090|    0.821573|    0.012432|
|         235|   -3.897471|   -6.235621|    0.821600|    0.012430|
|         236|   -3.903062|   -6.240356|    0.821632|    0.012428|
|         237|   -3.910499|   -6.245264|    0.821666|    0.012427|
|         238|   -3.919779|   -6.250332|    0.821703|    0.012425|
|         239|   -3.930485|   -6.255558|    0.821743|    0.012424|
|         240|   -3.941866|   -6.260907|    0.821786|    0.012423|
|         241|   -3.952954|   -6.266368|    0.821831|    0.012423|
|         242|   -3.962773|   -6.271918|    0.821878|    0.012422|
|         243|   -3.970582|   -6.277547|    0.821927|    0.012422|
|         244|   -3.976110|   -6.283236|    0.821979|    0.012423|
|         245|   -3.979627|   -6.288984|    0.822031|    0.012423|
|         246|   -3.981846|   -6.294761|    0.822085|    0.012424|
|         247|   -3.983680|   -6.300577|    0.822141|    0.012424|
|         248|   -3.985989|   -6.306422|    0.822197|    0.012425|
|         249|   -3.989405|   -6.312287|    0.822255|    0.012426|
|         250|   -3.994256|   -6.318162|    0.822314|    0.012428|
|         251|   -4.000569|   -6.324049|    0.822374|    0.012429|
|         252|   -4.008136|   -6.329944|    0.822434|    0.012430|
|         253|   -4.016599|   -6.335846|    0.822495|    0.012432|
|         254|   -4.025549|   -6.341748|    0.822557|    0.012434|
|         255|   -4.034620|   -6.347647|    0.822620|    0.012436|
|         256|   -4.043555|   -6.353547|    0.822683|    0.012438|
|         257|   -4.052243|   -6.359451|    0.822747|    0.012440|
|         258|   -4.060718|   -6.365342|    0.822812|    0.012442|
|         259|   -4.069116|   -6.371214|    0.822877|    0.012444|
|         260|   -4.077627|   -6.377052|    0.822942|    0.012446|
|         261|   -4.086441|   -6.382846|    0.823007|    0.012449|
|         262|   -4.095713|   -6.388582|    0.823073|    0.012451|
|         263|   -4.105540|   -6.394234|    0.823139|    0.012454|
|         264|   -4.115961|   -6.399790|    0.823205|    0.012456|
|         265|   -4.126968|   -6.405239|    0.823271|    0.012459|
|         266|   -4.138519|   -6.410573|    0.823336|    0.012462|
|         267|   -4.150559|   -6.415788|    0.823401|    0.012464|
|         268|   -4.163027|   -6.420890|    0.823466|    0.012467|
|         269|   -4.175866|   -6.425910|    0.823529|    0.012470|
|         270|   -4.189026|   -6.430878|    0.823592|    0.012473|
|         271|   -4.202454|   -6.435826|    0.823653|    0.012476|
|         272|   -4.216092|   -6.440794|    0.823713|    0.012479|
|         273|   -4.229868|   -6.445830|    0.823772|    0.012482|
|         274|   -4.243690|   -6.451013|    0.823828|    0.012485|
|         275|   -4.257442|   -6.456395|    0.823882|    0.012488|
|         276|   -4.270986|   -6.462019|    0.823934|    0.012491|
|         277|   -4.284164|   -6.467911|    0.823983|    0.012494|
|         278|   -4.296802|   -6.474092|    0.824030|    0.012497|
|         279|   -4.308723|   -6.480581|    0.824073|    0.012499|
|         280|   -4.319752|   -6.487358|    0.824113|    0.012502|
|         281|   -4.329728|   -6.494434|    0.824150|    0.012505|
|         282|   -4.338515|   -6.501785|    0.824184|    0.012508|
|         283|   -4.346013|   -6.509308|    0.824214|    0.012511|
|         284|   -4.352160|   -6.516911|    0.824240|    0.012514|
|         285|   -4.356938|   -6.524472|    0.824263|    0.012517|
|         286|   -4.360378|   -6.531945|    0.824282|    0.012520|
|         287|   -4.362550|   -6.539113|    0.824298|    0.012522|
|         288|   -4.363560|   -6.545826|    0.824309|    0.012525|
|         289|   -4.363544|   -6.551971|    0.824318|    0.012528|
|         290|   -4.362651|   -6.557476|    0.824322|    0.012530|
|         291|   -4.361044|   -6.562308|    0.824323|    0.012532|
|         292|   -4.358880|   -6.566467|    0.824321|    0.012535|
|         293|   -4.356313|   -6.570006|    0.824315|    0.012537|
|         294|   -4.353484|   -6.573014|    0.824307|    0.012539|
|         295|   -4.350519|   -6.575617|    0.824295|    0.012541|
|         296|   -4.347528|   -6.577968|    0.824281|    0.012543|
|         297|   -4.344604|   -6.580236|    0.824264|    0.012545|
|         298|   -4.341823|   -6.582594|    0.824244|    0.012546|
|         299|   -4.339250|   -6.585210|    0.824222|    0.012547|
|         300|   -4.336933|   -6.588244|    0.824199|    0.012549|
|         301|   -4.334912|   -6.591828|    0.824173|    0.012535|
+-----------------------------------------------------------------------+
|Fixed CL Mode                           |Value                         |
+-----------------------------------------------------------------------+
|Current CL                              |0.824173                      |
|Target CL                               |0.824                         |
|Previous AOA                            |2.80343                       |
|Changed AoA by                          |-0.000993814                  |
+-----------------------------------------------------------------------+
+----------------------------------------------------------------+
|  Inner_Iter|    rms[Rho]|     rms[nu]|          CL|          CD|
+----------------------------------------------------------------+
|         302|   -3.195147|   -6.588796|    0.824146|    0.012536|
|         303|   -3.580889|   -6.597879|    0.824118|    0.012536|
|         304|   -3.834617|   -6.604693|    0.824088|    0.012537|
|         305|   -3.919154|   -6.611649|    0.824057|    0.012537|
|         306|   -3.969376|   -6.619078|    0.824026|    0.012536|
|         307|   -4.028104|   -6.626969|    0.823994|    0.012536|
|         308|   -4.093185|   -6.635192|    0.823962|    0.012535|
|         309|   -4.149089|   -6.643493|    0.823930|    0.012534|
|         310|   -4.183737|   -6.651589|    0.823898|    0.012533|
|         311|   -4.199139|   -6.659149|    0.823866|    0.012531|
|         312|   -4.203886|   -6.665820|    0.823835|    0.012530|
|         313|   -4.203983|   -6.671260|    0.823805|    0.012528|
|         314|   -4.202584|   -6.675164|    0.823776|    0.012526|
|         315|   -4.202055|   -6.677282|    0.823748|    0.012524|
|         316|   -4.204328|   -6.677452|    0.823722|    0.012521|
|         317|   -4.210305|   -6.675623|    0.823697|    0.012519|
|         318|   -4.219544|   -6.671870|    0.823674|    0.012516|
|         319|   -4.230582|   -6.666387|    0.823653|    0.012513|
|         320|   -4.241685|   -6.659463|    0.823634|    0.012510|
|         321|   -4.251653|   -6.651444|    0.823617|    0.012507|
|         322|   -4.260218|   -6.642697|    0.823602|    0.012504|
|         323|   -4.267862|   -6.633590|    0.823589|    0.012501|
|         324|   -4.275318|   -6.624462|    0.823579|    0.012498|
|         325|   -4.283153|   -6.615612|    0.823571|    0.012495|
|         326|   -4.291630|   -6.607293|    0.823565|    0.012491|
|         327|   -4.300751|   -6.599713|    0.823562|    0.012488|
|         328|   -4.310366|   -6.593025|    0.823561|    0.012485|
|         329|   -4.320247|   -6.587348|    0.823562|    0.012482|
|         330|   -4.330134|   -6.582760|    0.823565|    0.012479|
|         331|   -4.339783|   -6.579293|    0.823570|    0.012476|
|         332|   -4.349026|   -6.576979|    0.823577|    0.012473|
|         333|   -4.357820|   -6.575812|    0.823586|    0.012470|
|         334|   -4.366259|   -6.575770|    0.823596|    0.012468|
|         335|   -4.374537|   -6.576809|    0.823608|    0.012465|
|         336|   -4.382884|   -6.578865|    0.823622|    0.012463|
|         337|   -4.391493|   -6.581856|    0.823636|    0.012460|
|         338|   -4.400469|   -6.585691|    0.823652|    0.012458|
|         339|   -4.409799|   -6.590260|    0.823668|    0.012455|
|         340|   -4.419350|   -6.595444|    0.823685|    0.012453|
|         341|   -4.428888|   -6.601110|    0.823703|    0.012451|
|         342|   -4.438125|   -6.607117|    0.823721|    0.012449|
|         343|   -4.446777|   -6.613313|    0.823740|    0.012447|
|         344|   -4.454625|   -6.619545|    0.823758|    0.012445|
|         345|   -4.461554|   -6.625690|    0.823777|    0.012443|
|         346|   -4.467558|   -6.631662|    0.823795|    0.012441|
|         347|   -4.472714|   -6.637373|    0.823813|    0.012439|
|         348|   -4.477136|   -6.642742|    0.823831|    0.012437|
|         349|   -4.480923|   -6.647708|    0.823848|    0.012435|
|         350|   -4.484130|   -6.652238|    0.823864|    0.012433|
|         351|   -4.486753|   -6.656329|    0.823879|    0.012431|
|         352|   -4.488748|   -6.660003|    0.823894|    0.012429|
|         353|   -4.490048|   -6.663303|    0.823908|    0.012427|
|         354|   -4.490599|   -6.666288|    0.823921|    0.012425|
|         355|   -4.490379|   -6.669031|    0.823933|    0.012423|
|         356|   -4.489418|   -6.671613|    0.823944|    0.012421|
|         357|   -4.487789|   -6.674113|    0.823955|    0.012419|
|         358|   -4.485607|   -6.676602|    0.823964|    0.012417|
|         359|   -4.483008|   -6.679141|    0.823973|    0.012415|
|         360|   -4.480136|   -6.681782|    0.823981|    0.012412|
|         361|   -4.477124|   -6.684564|    0.823988|    0.012410|
|         362|   -4.474094|   -6.687511|    0.823994|    0.012408|
|         363|   -4.471147|   -6.690634|    0.824000|    0.012406|
|         364|   -4.468365|   -6.693926|    0.824005|    0.012404|
|         365|   -4.465816|   -6.697369|    0.824010|    0.012402|
|         366|   -4.463555|   -6.700933|    0.824015|    0.012400|
|         367|   -4.461630|   -6.704576|    0.824020|    0.012398|
|         368|   -4.460079|   -6.708252|    0.824024|    0.012396|
|         369|   -4.458935|   -6.711911|    0.824028|    0.012394|
|         370|   -4.458225|   -6.715507|    0.824033|    0.012392|
|         371|   -4.457973|   -6.718999|    0.824038|    0.012391|
|         372|   -4.458195|   -6.722354|    0.824043|    0.012389|
|         373|   -4.458902|   -6.725555|    0.824048|    0.012388|
|         374|   -4.460101|   -6.728590|    0.824054|    0.012386|
|         375|   -4.461795|   -6.731462|    0.824060|    0.012385|
|         376|   -4.463980|   -6.734182|    0.824067|    0.012384|
|         377|   -4.466650|   -6.736771|    0.824074|    0.012383|
|         378|   -4.469794|   -6.739256|    0.824082|    0.012382|
|         379|   -4.473397|   -6.741669|    0.824090|    0.012381|
|         380|   -4.477441|   -6.744044|    0.824099|    0.012380|
|         381|   -4.481901|   -6.746415|    0.824109|    0.012380|
|         382|   -4.486752|   -6.748810|    0.824119|    0.012379|
|         383|   -4.491960|   -6.751255|    0.824130|    0.012379|
|         384|   -4.497489|   -6.753766|    0.824141|    0.012379|
|         385|   -4.503298|   -6.756349|    0.824153|    0.012379|
|         386|   -4.509341|   -6.759004|    0.824164|    0.012379|
|         387|   -4.515568|   -6.761719|    0.824177|    0.012379|
|         388|   -4.521925|   -6.764474|    0.824189|    0.012380|
|         389|   -4.528355|   -6.767242|    0.824201|    0.012380|
|         390|   -4.534796|   -6.769988|    0.824214|    0.012381|
|         391|   -4.541187|   -6.772675|    0.824226|    0.012381|
|         392|   -4.547466|   -6.775261|    0.824238|    0.012382|
|         393|   -4.553571|   -6.777706|    0.824250|    0.012382|
|         394|   -4.559443|   -6.779974|    0.824262|    0.012383|
|         395|   -4.565026|   -6.782033|    0.824274|    0.012384|
|         396|   -4.570269|   -6.783861|    0.824285|    0.012385|
|         397|   -4.575129|   -6.785441|    0.824296|    0.012386|
|         398|   -4.579568|   -6.786771|    0.824306|    0.012386|
|         399|   -4.583561|   -6.787856|    0.824316|    0.012387|
|         400|   -4.587089|   -6.788714|    0.824325|    0.012388|
|         401|   -4.590145|   -6.789370|    0.824334|    0.012366|
+-----------------------------------------------------------------------+
|Fixed CL Mode                           |Value                         |
+-----------------------------------------------------------------------+
|Current CL                              |0.824334                      |
|Target CL                               |0.824                         |
|Previous AOA                            |2.80243                       |
|Changed AoA by                          |-0.00162524                   |
+-----------------------------------------------------------------------+
+----------------------------------------------------------------+
|  Inner_Iter|    rms[Rho]|     rms[nu]|          CL|          CD|
+----------------------------------------------------------------+
|         402|   -2.982258|   -6.741242|    0.824342|    0.012366|
|         403|   -3.366275|   -6.765664|    0.824350|    0.012367|
|         404|   -3.611151|   -6.773244|    0.824357|    0.012368|
|         405|   -3.691979|   -6.777330|    0.824364|    0.012368|
|         406|   -3.746787|   -6.780174|    0.824370|    0.012369|
|         407|   -3.816655|   -6.782353|    0.824375|    0.012370|
|         408|   -3.901806|   -6.784079|    0.824380|    0.012370|
|         409|   -3.988695|   -6.785482|    0.824385|    0.012371|
|         410|   -4.060341|   -6.786652|    0.824389|    0.012371|
|         411|   -4.109340|   -6.787641|    0.824393|    0.012372|
|         412|   -4.139104|   -6.788504|    0.824396|    0.012372|
|         413|   -4.154904|   -6.789336|    0.824399|    0.012372|
|         414|   -4.161182|   -6.790242|    0.824402|    0.012372|
|         415|   -4.163308|   -6.791300|    0.824405|    0.012373|
|         416|   -4.166811|   -6.792530|    0.824407|    0.012373|
|         417|   -4.175202|   -6.793922|    0.824409|    0.012373|
|         418|   -4.189053|   -6.795465|    0.824411|    0.012373|
|         419|   -4.206542|   -6.797153|    0.824413|    0.012373|
|         420|   -4.224804|   -6.798995|    0.824414|    0.012373|
|         421|   -4.241553|   -6.800996|    0.824416|    0.012373|
|         422|   -4.256112|   -6.803151|    0.824417|    0.012373|
|         423|   -4.269251|   -6.805449|    0.824419|    0.012372|
|         424|   -4.282174|   -6.807873|    0.824420|    0.012372|
|         425|   -4.295623|   -6.810407|    0.824421|    0.012372|
|         426|   -4.309602|   -6.813041|    0.824422|    0.012372|
|         427|   -4.323594|   -6.815774|    0.824423|    0.012372|
|         428|   -4.336898|   -6.818611|    0.824424|    0.012371|
|         429|   -4.348882|   -6.821559|    0.824424|    0.012371|
|         430|   -4.359108|   -6.824630|    0.824425|    0.012371|
|         431|   -4.367405|   -6.827837|    0.824425|    0.012370|
|         432|   -4.373925|   -6.831190|    0.824426|    0.012370|
|         433|   -4.379145|   -6.834698|    0.824426|    0.012369|
|         434|   -4.383765|   -6.838366|    0.824426|    0.012369|
|         435|   -4.388542|   -6.842190|    0.824426|    0.012369|
|         436|   -4.394112|   -6.846182|    0.824426|    0.012368|
|         437|   -4.400872|   -6.850335|    0.824425|    0.012368|
|         438|   -4.408936|   -6.854643|    0.824425|    0.012367|
|         439|   -4.418140|   -6.859095|    0.824424|    0.012367|
|         440|   -4.428085|   -6.863675|    0.824423|    0.012366|
|         441|   -4.438215|   -6.868372|    0.824422|    0.012366|
|         442|   -4.447943|   -6.873168|    0.824420|    0.012366|
|         443|   -4.456789|   -6.878051|    0.824418|    0.012365|
|         444|   -4.464519|   -6.883011|    0.824417|    0.012365|
|         445|   -4.471205|   -6.888029|    0.824414|    0.012364|
|         446|   -4.477198|   -6.893091|    0.824412|    0.012364|
|         447|   -4.483007|   -6.898188|    0.824409|    0.012364|
|         448|   -4.489158|   -6.903311|    0.824406|    0.012363|
|         449|   -4.496071|   -6.908451|    0.824403|    0.012363|
|         450|   -4.503982|   -6.913593|    0.824399|    0.012362|
|         451|   -4.512931|   -6.918727|    0.824395|    0.012362|
|         452|   -4.522779|   -6.923852|    0.824391|    0.012361|
|         453|   -4.533269|   -6.928962|    0.824387|    0.012361|
|         454|   -4.544087|   -6.934044|    0.824382|    0.012361|
|         455|   -4.554930|   -6.939093|    0.824377|    0.012360|
|         456|   -4.565567|   -6.944114|    0.824371|    0.012360|
|         457|   -4.575861|   -6.949109|    0.824366|    0.012359|
|         458|   -4.585782|   -6.954092|    0.824360|    0.012359|
|         459|   -4.595375|   -6.959063|    0.824353|    0.012358|
|         460|   -4.604731|   -6.964036|    0.824347|    0.012358|
|         461|   -4.613947|   -6.969033|    0.824340|    0.012357|
|         462|   -4.623091|   -6.974073|    0.824333|    0.012357|
|         463|   -4.632190|   -6.979177|    0.824326|    0.012356|
|         464|   -4.641223|   -6.984362|    0.824319|    0.012356|
|         465|   -4.650133|   -6.989646|    0.824312|    0.012355|
|         466|   -4.658837|   -6.995044|    0.824304|    0.012355|
|         467|   -4.667242|   -7.000564|    0.824297|    0.012354|
|         468|   -4.675259|   -7.006209|    0.824290|    0.012354|
|         469|   -4.682811|   -7.011978|    0.824283|    0.012353|
|         470|   -4.689834|   -7.017856|    0.824276|    0.012353|
|         471|   -4.696281|   -7.023828|    0.824270|    0.012352|
|         472|   -4.702117|   -7.029867|    0.824264|    0.012352|
|         473|   -4.707319|   -7.035941|    0.824258|    0.012351|
|         474|   -4.711874|   -7.042014|    0.824253|    0.012351|
|         475|   -4.715779|   -7.048046|    0.824249|    0.012350|
|         476|   -4.719044|   -7.054284|    0.824245|    0.012350|
|         477|   -4.721694|   -7.060431|    0.824242|    0.012349|
|         478|   -4.723766|   -7.066494|    0.824239|    0.012349|
|         479|   -4.725312|   -7.072460|    0.824237|    0.012348|
|         480|   -4.726397|   -7.078251|    0.824237|    0.012348|
|         481|   -4.727095|   -7.083787|    0.824236|    0.012347|
|         482|   -4.727489|   -7.089001|    0.824237|    0.012347|
|         483|   -4.727662|   -7.093810|    0.824239|    0.012346|
|         484|   -4.727699|   -7.098161|    0.824241|    0.012346|
|         485|   -4.727681|   -7.102022|    0.824244|    0.012345|
|         486|   -4.727687|   -7.105421|    0.824249|    0.012345|
|         487|   -4.727787|   -7.108347|    0.824254|    0.012344|
|         488|   -4.728046|   -7.110836|    0.824259|    0.012344|
|         489|   -4.728520|   -7.112914|    0.824266|    0.012343|
|         490|   -4.729259|   -7.114628|    0.824273|    0.012343|
|         491|   -4.730303|   -7.116032|    0.824281|    0.012342|
|         492|   -4.731687|   -7.117183|    0.824290|    0.012342|
|         493|   -4.733437|   -7.118142|    0.824299|    0.012341|
|         494|   -4.735573|   -7.118970|    0.824308|    0.012340|
|         495|   -4.738108|   -7.119721|    0.824319|    0.012340|
|         496|   -4.741050|   -7.120445|    0.824329|    0.012339|
|         497|   -4.744401|   -7.121183|    0.824340|    0.012339|
|         498|   -4.748156|   -7.121962|    0.824352|    0.012338|
|         499|   -4.752307|   -7.122798|    0.824364|    0.012337|
|         500|   -4.756839|   -7.123692|    0.824376|    0.012337|
|         501|   -4.761736|   -7.124629|    0.824388|    0.012309|
+-----------------------------------------------------------------------+
|Fixed CL Mode                           |Value                         |
+-----------------------------------------------------------------------+
|Current CL                              |0.824388                      |
|Target CL                               |0.824                         |
|Previous AOA                            |2.80081                       |
|Changed AoA by                          |-0.00187852                   |
+-----------------------------------------------------------------------+
+----------------------------------------------------------------+
|  Inner_Iter|    rms[Rho]|     rms[nu]|          CL|          CD|
+----------------------------------------------------------------+
|         502|   -2.919419|   -6.915728|    0.824401|    0.012308|
|         503|   -3.302650|   -6.998137|    0.824413|    0.012308|
|         504|   -3.544177|   -7.029094|    0.824426|    0.012307|
|         505|   -3.622752|   -7.047621|    0.824438|    0.012306|
|         506|   -3.677072|   -7.061548|    0.824451|    0.012305|
|         507|   -3.747311|   -7.072724|    0.824463|    0.012305|
|         508|   -3.833946|   -7.081602|    0.824476|    0.012304|
|         509|   -3.924499|   -7.088392|    0.824488|    0.012303|
|         510|   -4.002743|   -7.093181|    0.824500|    0.012303|
|         511|   -4.060314|   -7.095938|    0.824512|    0.012302|
|         512|   -4.098591|   -7.096717|    0.824523|    0.012302|
|         513|   -4.121126|   -7.095892|    0.824534|    0.012301|
|         514|   -4.131566|   -7.093986|    0.824545|    0.012300|
|         515|   -4.135729|   -7.091400|    0.824556|    0.012300|
|         516|   -4.140338|   -7.088317|    0.824566|    0.012299|
|         517|   -4.149967|   -7.084785|    0.824576|    0.012299|
|         518|   -4.165747|   -7.080884|    0.824585|    0.012298|
|         519|   -4.185939|   -7.076763|    0.824594|    0.012298|
|         520|   -4.207435|   -7.072603|    0.824602|    0.012297|
|         521|   -4.227599|   -7.068553|    0.824610|    0.012297|
|         522|   -4.245559|   -7.064687|    0.824617|    0.012296|
|         523|   -4.262139|   -7.061007|    0.824624|    0.012296|
|         524|   -4.278707|   -7.057480|    0.824630|    0.012295|
|         525|   -4.296082|   -7.054193|    0.824636|    0.012295|
|         526|   -4.314169|   -7.051067|    0.824641|    0.012294|
|         527|   -4.332200|   -7.047997|    0.824646|    0.012294|
|         528|   -4.349172|   -7.045039|    0.824650|    0.012294|
|         529|   -4.364190|   -7.042203|    0.824654|    0.012293|
|         530|   -4.376658|   -7.039490|    0.824657|    0.012293|
|         531|   -4.386385|   -7.036901|    0.824660|    0.012293|
|         532|   -4.393647|   -7.034398|    0.824662|    0.012293|
|         533|   -4.399168|   -7.032019|    0.824664|    0.012292|
|         534|   -4.403960|   -7.029739|    0.824665|    0.012292|
|         535|   -4.409067|   -7.027529|    0.824666|    0.012292|
|         536|   -4.415333|   -7.025351|    0.824666|    0.012292|
|         537|   -4.423254|   -7.023174|    0.824666|    0.012292|
|         538|   -4.432925|   -7.020979|    0.824665|    0.012292|
|         539|   -4.444055|   -7.018737|    0.824664|    0.012292|
|         540|   -4.456011|   -7.016431|    0.824663|    0.012292|
|         541|   -4.467930|   -7.014054|    0.824661|    0.012292|
|         542|   -4.478886|   -7.011603|    0.824659|    0.012292|
|         543|   -4.488130|   -7.009082|    0.824656|    0.012292|
|         544|   -4.495311|   -7.006490|    0.824654|    0.012292|
|         545|   -4.500586|   -7.003836|    0.824650|    0.012292|
|         546|   -4.504551|   -7.001143|    0.824647|    0.012292|
|         547|   -4.508038|   -6.998395|    0.824643|    0.012293|
|         548|   -4.511867|   -6.995604|    0.824638|    0.012293|
|         549|   -4.516665|   -6.992782|    0.824634|    0.012293|
|         550|   -4.522772|   -6.989947|    0.824629|    0.012294|
|         551|   -4.530231|   -6.987080|    0.824623|    0.012294|
|         552|   -4.538844|   -6.984195|    0.824617|    0.012295|
|         553|   -4.548250|   -6.981309|    0.824610|    0.012295|
|         554|   -4.558024|   -6.978434|    0.824603|    0.012296|
|         555|   -4.567780|   -6.975553|    0.824596|    0.012296|
|         556|   -4.577241|   -6.972674|    0.824588|    0.012297|
|         557|   -4.586282|   -6.969785|    0.824580|    0.012298|
|         558|   -4.594933|   -6.966899|    0.824571|    0.012298|
|         559|   -4.603339|   -6.964032|    0.824561|    0.012299|
|         560|   -4.611706|   -6.961211|    0.824551|    0.012300|
|         561|   -4.620246|   -6.958457|    0.824541|    0.012300|
|         562|   -4.629136|   -6.955794|    0.824530|    0.012301|
|         563|   -4.638497|   -6.953250|    0.824519|    0.012302|
|         564|   -4.648390|   -6.950855|    0.824508|    0.012303|
|         565|   -4.658829|   -6.948634|    0.824496|    0.012303|
|         566|   -4.669798|   -6.946618|    0.824484|    0.012304|
|         567|   -4.681266|   -6.944839|    0.824472|    0.012305|
|         568|   -4.693201|   -6.943330|    0.824460|    0.012306|
|         569|   -4.705581|   -6.942118|    0.824447|    0.012307|
|         570|   -4.718388|   -6.941222|    0.824435|    0.012308|
|         571|   -4.731613|   -6.940655|    0.824423|    0.012308|
|         572|   -4.745241|   -6.940427|    0.824411|    0.012309|
|         573|   -4.759249|   -6.940526|    0.824400|    0.012310|
|         574|   -4.773599|   -6.940934|    0.824389|    0.012311|
|         575|   -4.788232|   -6.941622|    0.824379|    0.012312|
|         576|   -4.803070|   -6.942555|    0.824369|    0.012313|
|         577|   -4.818016|   -6.943678|    0.824360|    0.012314|
|         578|   -4.832955|   -6.944926|    0.824352|    0.012315|
|         579|   -4.847761|   -6.946227|    0.824344|    0.012316|
|         580|   -4.862296|   -6.947503|    0.824338|    0.012317|
|         581|   -4.876422|   -6.948682|    0.824332|    0.012318|
|         582|   -4.889998|   -6.949683|    0.824327|    0.012319|
|         583|   -4.902894|   -6.950421|    0.824324|    0.012319|
|         584|   -4.914991|   -6.950832|    0.824322|    0.012320|
|         585|   -4.926188|   -6.950876|    0.824320|    0.012321|
|         586|   -4.936411|   -6.950522|    0.824320|    0.012322|
|         587|   -4.945612|   -6.949756|    0.824321|    0.012323|
|         588|   -4.953776|   -6.948583|    0.824323|    0.012324|
|         589|   -4.960920|   -6.947023|    0.824326|    0.012324|
|         590|   -4.967092|   -6.945115|    0.824330|    0.012325|
|         591|   -4.972362|   -6.942910|    0.824335|    0.012326|
|         592|   -4.976825|   -6.940467|    0.824341|    0.012327|
|         593|   -4.980588|   -6.937853|    0.824348|    0.012327|
|         594|   -4.983762|   -6.935136|    0.824356|    0.012328|
|         595|   -4.986465|   -6.932390|    0.824364|    0.012328|
|         596|   -4.988806|   -6.929695|    0.824374|    0.012329|
|         597|   -4.990889|   -6.927038|    0.824384|    0.012329|
|         598|   -4.992808|   -6.924483|    0.824395|    0.012330|
|         599|   -4.994643|   -6.922064|    0.824406|    0.012330|
|         600|   -4.996465|   -6.919795|    0.824418|    0.012331|
|         601|   -4.998331|   -6.917673|    0.824431|    0.012301|
+-----------------------------------------------------------------------+
|Fixed CL Mode                           |Value                         |
+-----------------------------------------------------------------------+
|Current CL                              |0.824431                      |
|Target CL                               |0.824                         |
|Previous AOA                            |2.79893                       |
|Changed AoA by                          |-0.00208925                   |
+-----------------------------------------------------------------------+
+----------------------------------------------------------------+
|  Inner_Iter|    rms[Rho]|     rms[nu]|          CL|          CD|
+----------------------------------------------------------------+
|         602|   -2.873321|   -6.791066|    0.824443|    0.012301|
|         603|   -3.256830|   -6.843597|    0.824457|    0.012301|
|         604|   -3.498341|   -6.860421|    0.824470|    0.012301|
|         605|   -3.576281|   -6.869305|    0.824484|    0.012301|
|         606|   -3.630137|   -6.875235|    0.824497|    0.012301|
|         607|   -3.700195|   -6.879395|    0.824511|    0.012301|
|         608|   -3.786988|   -6.882153|    0.824525|    0.012301|
|         609|   -3.878234|   -6.883719|    0.824539|    0.012301|
|         610|   -3.957879|   -6.884219|    0.824553|    0.012301|
|         611|   -4.017393|   -6.883696|    0.824567|    0.012301|
|         612|   -4.057716|   -6.882209|    0.824580|    0.012301|
|         613|   -4.081946|   -6.879948|    0.824593|    0.012300|
|         614|   -4.093451|   -6.877152|    0.824606|    0.012300|
|         615|   -4.098111|   -6.874004|    0.824619|    0.012300|
|         616|   -4.102943|   -6.870585|    0.824631|    0.012299|
|         617|   -4.112806|   -6.866921|    0.824643|    0.012299|
|         618|   -4.128994|   -6.863050|    0.824655|    0.012299|
|         619|   -4.149809|   -6.859049|    0.824666|    0.012298|
|         620|   -4.172105|   -6.855011|    0.824676|    0.012298|
|         621|   -4.193180|   -6.851022|    0.824686|    0.012297|
|         622|   -4.212127|   -6.847130|    0.824696|    0.012296|
|         623|   -4.229789|   -6.843349|    0.824705|    0.012296|
|         624|   -4.247568|   -6.839692|    0.824713|    0.012295|
|         625|   -4.266282|   -6.836156|    0.824721|    0.012294|
|         626|   -4.285773|   -6.832755|    0.824728|    0.012294|
|         627|   -4.305151|   -6.829500|    0.824734|    0.012293|
|         628|   -4.323269|   -6.826413|    0.824740|    0.012292|
|         629|   -4.339118|   -6.823512|    0.824746|    0.012291|
|         630|   -4.352052|   -6.820812|    0.824751|    0.012290|
|         631|   -4.361912|   -6.818313|    0.824755|    0.012290|
|         632|   -4.369086|   -6.816033|    0.824759|    0.012289|
|         633|   -4.374454|   -6.813979|    0.824762|    0.012288|
|         634|   -4.379189|   -6.812139|    0.824764|    0.012287|
|         635|   -4.384464|   -6.810509|    0.824766|    0.012286|
|         636|   -4.391204|   -6.809050|    0.824768|    0.012285|
|         637|   -4.399937|   -6.807734|    0.824769|    0.012284|
|         638|   -4.410750|   -6.806525|    0.824769|    0.012283|
|         639|   -4.423298|   -6.805393|    0.824770|    0.012283|
|         640|   -4.436857|   -6.804309|    0.824769|    0.012282|
|         641|   -4.450424|   -6.803250|    0.824768|    0.012281|
|         642|   -4.462911|   -6.802183|    0.824767|    0.012280|
|         643|   -4.473416|   -6.801088|    0.824765|    0.012279|
|         644|   -4.481497|   -6.799952|    0.824763|    0.012279|
|         645|   -4.487319|   -6.798769|    0.824761|    0.012278|
|         646|   -4.491577|   -6.797532|    0.824758|    0.012277|
|         647|   -4.495247|   -6.796237|    0.824755|    0.012277|
|         648|   -4.499301|   -6.794884|    0.824751|    0.012276|
|         649|   -4.504479|   -6.793480|    0.824747|    0.012276|
|         650|   -4.511190|   -6.792028|    0.824742|    0.012275|
|         651|   -4.519498|   -6.790527|    0.824737|    0.012275|
|         652|   -4.529183|   -6.788986|    0.824731|    0.012274|
|         653|   -4.539830|   -6.787426|    0.824725|    0.012274|
|         654|   -4.550944|   -6.785858|    0.824718|    0.012273|
|         655|   -4.562061|   -6.784288|    0.824711|    0.012273|
|         656|   -4.572839|   -6.782715|    0.824703|    0.012273|
|         657|   -4.583115|   -6.781155|    0.824695|    0.012272|
|         658|   -4.592908|   -6.779619|    0.824686|    0.012272|
|         659|   -4.602384|   -6.778120|    0.824677|    0.012272|
|         660|   -4.611783|   -6.776696|    0.824667|    0.012272|
|         661|   -4.621362|   -6.775349|    0.824657|    0.012272|
|         662|   -4.631336|   -6.774094|    0.824646|    0.012272|
|         663|   -4.641853|   -6.772959|    0.824634|    0.012272|
|         664|   -4.652993|   -6.771965|    0.824623|    0.012272|
|         665|   -4.664776|   -6.771130|    0.824611|    0.012272|
|         666|   -4.677186|   -6.770474|    0.824598|    0.012272|
|         667|   -4.690192|   -6.770018|    0.824586|    0.012272|
|         668|   -4.703764|   -6.769792|    0.824573|    0.012272|
|         669|   -4.717883|   -6.769808|    0.824561|    0.012272|
|         670|   -4.732547|   -6.770081|    0.824548|    0.012273|
|         671|   -4.747762|   -6.770622|    0.824535|    0.012273|
|         672|   -4.763534|   -6.771434|    0.824523|    0.012273|
|         673|   -4.779866|   -6.772514|    0.824511|    0.012274|
|         674|   -4.796743|   -6.773851|    0.824500|    0.012274|
|         675|   -4.814126|   -6.775426|    0.824489|    0.012274|
|         676|   -4.831954|   -6.777212|    0.824478|    0.012275|
|         677|   -4.850139|   -6.779174|    0.824469|    0.012276|
|         678|   -4.868566|   -6.781269|    0.824460|    0.012276|
|         679|   -4.887097|   -6.783456|    0.824452|    0.012277|
|         680|   -4.905571|   -6.785675|    0.824445|    0.012278|
|         681|   -4.923809|   -6.787868|    0.824439|    0.012278|
|         682|   -4.941619|   -6.789988|    0.824433|    0.012279|
|         683|   -4.958799|   -6.791972|    0.824429|    0.012280|
|         684|   -4.975146|   -6.793767|    0.824426|    0.012281|
|         685|   -4.990467|   -6.795331|    0.824425|    0.012282|
|         686|   -5.004587|   -6.796633|    0.824424|    0.012283|
|         687|   -5.017365|   -6.797653|    0.824424|    0.012284|
|         688|   -5.028705|   -6.798387|    0.824426|    0.012285|
|         689|   -5.038558|   -6.798842|    0.824428|    0.012286|
|         690|   -5.046932|   -6.799041|    0.824432|    0.012287|
|         691|   -5.053888|   -6.799016|    0.824436|    0.012288|
|         692|   -5.059530|   -6.798813|    0.824442|    0.012289|
|         693|   -5.063999|   -6.798478|    0.824448|    0.012290|
|         694|   -5.067457|   -6.798065|    0.824456|    0.012291|
|         695|   -5.070078|   -6.797632|    0.824464|    0.012292|
|         696|   -5.072033|   -6.797232|    0.824473|    0.012293|
|         697|   -5.073487|   -6.796914|    0.824482|    0.012294|
|         698|   -5.074588|   -6.796722|    0.824493|    0.012295|
|         699|   -5.075469|   -6.796693|    0.824503|    0.012296|
|         700|   -5.076241|   -6.796853|    0.824515|    0.012297|
|         701|   -5.076997|   -6.797220|    0.824527|    0.012261|
+-----------------------------------------------------------------------+
|Fixed CL Mode                           |Value                         |
+-----------------------------------------------------------------------+
|Current CL                              |0.824527                      |
|Target CL                               |0.824                         |
|Previous AOA                            |2.79684                       |
|Changed AoA by                          |-0.00257319                   |
+-----------------------------------------------------------------------+
+----------------------------------------------------------------+
|  Inner_Iter|    rms[Rho]|     rms[nu]|          CL|          CD|
+----------------------------------------------------------------+
|         702|   -2.782882|   -6.685053|    0.824539|    0.012262|
|         703|   -3.166755|   -6.735362|    0.824552|    0.012263|
|         704|   -3.409026|   -6.752912|    0.824564|    0.012264|
|         705|   -3.487060|   -6.763420|    0.824577|    0.012265|
|         706|   -3.540726|   -6.771451|    0.824590|    0.012265|
|         707|   -3.610625|   -6.778077|    0.824603|    0.012266|
|         708|   -3.697321|   -6.783622|    0.824616|    0.012267|
|         709|   -3.788496|   -6.788266|    0.824630|    0.012268|
|         710|   -3.868035|   -6.792108|    0.824642|    0.012269|
|         711|   -3.927389|   -6.795154|    0.824655|    0.012270|
|         712|   -3.967538|   -6.797423|    0.824668|    0.012271|
|         713|   -3.991644|   -6.799057|    0.824680|    0.012271|
|         714|   -4.003109|   -6.800257|    0.824692|    0.012272|
|         715|   -4.007806|   -6.801170|    0.824703|    0.012273|
|         716|   -4.012731|   -6.801836|    0.824715|    0.012273|
|         717|   -4.022720|   -6.802236|    0.824725|    0.012274|
|         718|   -4.039058|   -6.802367|    0.824735|    0.012275|
|         719|   -4.060038|   -6.802268|    0.824745|    0.012275|
|         720|   -4.082505|   -6.802010|    0.824754|    0.012276|
|         721|   -4.103744|   -6.801650|    0.824763|    0.012276|
|         722|   -4.122847|   -6.801219|    0.824770|    0.012277|
|         723|   -4.140665|   -6.800713|    0.824778|    0.012277|
|         724|   -4.158619|   -6.800114|    0.824784|    0.012277|
|         725|   -4.177542|   -6.799415|    0.824790|    0.012278|
|         726|   -4.197281|   -6.798628|    0.824795|    0.012278|
|         727|   -4.216937|   -6.797767|    0.824800|    0.012278|
|         728|   -4.235342|   -6.796862|    0.824804|    0.012278|
|         729|   -4.251457|   -6.795950|    0.824807|    0.012278|
|         730|   -4.264607|   -6.795052|    0.824810|    0.012278|
|         731|   -4.274619|   -6.794203|    0.824812|    0.012278|
|         732|   -4.281883|   -6.793449|    0.824813|    0.012278|
|         733|   -4.287303|   -6.792810|    0.824814|    0.012278|
|         734|   -4.292086|   -6.792296|    0.824814|    0.012278|
|         735|   -4.297444|   -6.791908|    0.824814|    0.012277|
|         736|   -4.304336|   -6.791631|    0.824812|    0.012277|
|         737|   -4.313317|   -6.791445|    0.824811|    0.012277|
|         738|   -4.324492|   -6.791338|    0.824808|    0.012277|
|         739|   -4.337526|   -6.791278|    0.824806|    0.012276|
|         740|   -4.351688|   -6.791255|    0.824802|    0.012276|
|         741|   -4.365956|   -6.791205|    0.824798|    0.012275|
|         742|   -4.379201|   -6.791114|    0.824794|    0.012275|
|         743|   -4.390471|   -6.790967|    0.824789|    0.012274|
|         744|   -4.399275|   -6.790749|    0.824783|    0.012274|
|         745|   -4.405750|   -6.790453|    0.824777|    0.012273|
|         746|   -4.410592|   -6.790074|    0.824771|    0.012273|
|         747|   -4.414807|   -6.789606|    0.824764|    0.012272|
|         748|   -4.419407|   -6.789054|    0.824757|    0.012271|
|         749|   -4.425173|   -6.788426|    0.824749|    0.012271|
|         750|   -4.432542|   -6.787706|    0.824740|    0.012270|
|         751|   -4.441596|   -6.786894|    0.824731|    0.012270|
|         752|   -4.452113|   -6.785998|    0.824721|    0.012269|
|         753|   -4.463664|   -6.785042|    0.824711|    0.012268|
|         754|   -4.475725|   -6.784037|    0.824700|    0.012268|
|         755|   -4.487797|   -6.783008|    0.824688|    0.012267|
|         756|   -4.499503|   -6.781940|    0.824676|    0.012266|
|         757|   -4.510654|   -6.780845|    0.824663|    0.012265|
|         758|   -4.521259|   -6.779739|    0.824649|    0.012265|
|         759|   -4.531484|   -6.778633|    0.824635|    0.012264|
|         760|   -4.541587|   -6.777555|    0.824620|    0.012263|
|         761|   -4.551840|   -6.776528|    0.824605|    0.012263|
|         762|   -4.562477|   -6.775593|    0.824589|    0.012262|
|         763|   -4.573660|   -6.774781|    0.824573|    0.012261|
|         764|   -4.585477|   -6.774088|    0.824556|    0.012260|
|         765|   -4.597948|   -6.773553|    0.824539|    0.012260|
|         766|   -4.611055|   -6.773203|    0.824522|    0.012259|
|         767|   -4.624761|   -6.773082|    0.824504|    0.012258|
|         768|   -4.639028|   -6.773211|    0.824487|    0.012258|
|         769|   -4.653832|   -6.773616|    0.824469|    0.012257|
|         770|   -4.669166|   -6.774317|    0.824452|    0.012256|
|         771|   -4.685033|   -6.775325|    0.824435|    0.012256|
|         772|   -4.701435|   -6.776641|    0.824418|    0.012255|
|         773|   -4.718372|   -6.778260|    0.824402|    0.012255|
|         774|   -4.735820|   -6.780162|    0.824387|    0.012254|
|         775|   -4.753735|   -6.782320|    0.824372|    0.012254|
|         776|   -4.772044|   -6.784694|    0.824358|    0.012254|
|         777|   -4.790641|   -6.787231|    0.824345|    0.012253|
|         778|   -4.809396|   -6.789870|    0.824333|    0.012253|
|         779|   -4.828148|   -6.792542|    0.824322|    0.012253|
|         780|   -4.846717|   -6.795170|    0.824313|    0.012253|
|         781|   -4.864903|   -6.797679|    0.824304|    0.012253|
|         782|   -4.882494|   -6.800002|    0.824298|    0.012253|
|         783|   -4.899276|   -6.802069|    0.824292|    0.012253|
|         784|   -4.915037|   -6.803815|    0.824288|    0.012253|
|         785|   -4.929588|   -6.805189|    0.824285|    0.012253|
|         786|   -4.942767|   -6.806157|    0.824284|    0.012253|
|         787|   -4.954457|   -6.806710|    0.824284|    0.012254|
|         788|   -4.964595|   -6.806858|    0.824286|    0.012254|
|         789|   -4.973176|   -6.806634|    0.824289|    0.012254|
|         790|   -4.980254|   -6.806083|    0.824293|    0.012255|
|         791|   -4.985934|   -6.805270|    0.824298|    0.012255|
|         792|   -4.990361|   -6.804271|    0.824305|    0.012256|
|         793|   -4.993710|   -6.803173|    0.824313|    0.012256|
|         794|   -4.996167|   -6.802058|    0.824322|    0.012257|
|         795|   -4.997921|   -6.801009|    0.824332|    0.012257|
|         796|   -4.999149|   -6.800104|    0.824343|    0.012258|
|         797|   -5.000013|   -6.799414|    0.824354|    0.012259|
|         798|   -5.000657|   -6.798998|    0.824367|    0.012259|
|         799|   -5.001199|   -6.798903|    0.824380|    0.012260|
|         800|   -5.001739|   -6.799163|    0.824394|    0.012261|
|         801|   -5.002355|   -6.799798|    0.824408|    0.012233|
+-----------------------------------------------------------------------+
|Fixed CL Mode                           |Value                         |
+-----------------------------------------------------------------------+
|Current CL                              |0.824408                      |
|Target CL                               |0.824                         |
|Previous AOA                            |2.79427                       |
|Changed AoA by                          |-0.00196887                   |
+-----------------------------------------------------------------------+
+----------------------------------------------------------------+
|  Inner_Iter|    rms[Rho]|     rms[nu]|          CL|          CD|
+----------------------------------------------------------------+
|         802|   -2.899122|   -6.726805|    0.824423|    0.012234|
|         803|   -3.282655|   -6.762077|    0.824438|    0.012235|
|         804|   -3.523813|   -6.774604|    0.824453|    0.012235|
|         805|   -3.601158|   -6.782630|    0.824469|    0.012236|
|         806|   -3.654526|   -6.789199|    0.824485|    0.012237|
|         807|   -3.724134|   -6.794990|    0.824500|    0.012238|
|         808|   -3.810469|   -6.800184|    0.824516|    0.012239|
|         809|   -3.901361|   -6.804860|    0.824531|    0.012240|
|         810|   -3.981008|   -6.809041|    0.824546|    0.012240|
|         811|   -4.041030|   -6.812688|    0.824561|    0.012241|
|         812|   -4.082242|   -6.815762|    0.824576|    0.012242|
|         813|   -4.107484|   -6.818309|    0.824590|    0.012243|
|         814|   -4.119867|   -6.820417|    0.824604|    0.012244|
|         815|   -4.125133|   -6.822149|    0.824617|    0.012245|
|         816|   -4.130322|   -6.823511|    0.824630|    0.012246|
|         817|   -4.140389|   -6.824481|    0.824642|    0.012246|
|         818|   -4.156723|   -6.825057|    0.824653|    0.012247|
|         819|   -4.177696|   -6.825277|    0.824664|    0.012248|
|         820|   -4.200216|   -6.825204|    0.824673|    0.012249|
|         821|   -4.221617|   -6.824908|    0.824683|    0.012250|
|         822|   -4.241019|   -6.824438|    0.824691|    0.012250|
|         823|   -4.259265|   -6.823831|    0.824698|    0.012251|
|         824|   -4.277742|   -6.823118|    0.824705|    0.012252|
|         825|   -4.297229|   -6.822331|    0.824711|    0.012252|
|         826|   -4.317497|   -6.821509|    0.824715|    0.012253|
|         827|   -4.337558|   -6.820701|    0.824719|    0.012253|
|         828|   -4.356162|   -6.819955|    0.824723|    0.012254|
|         829|   -4.372221|   -6.819321|    0.824725|    0.012254|
|         830|   -4.385065|   -6.818841|    0.824727|    0.012255|
|         831|   -4.394576|   -6.818540|    0.824727|    0.012255|
|         832|   -4.401233|   -6.818462|    0.824727|    0.012256|
|         833|   -4.406026|   -6.818625|    0.824726|    0.012256|
|         834|   -4.410222|   -6.819034|    0.824725|    0.012256|
|         835|   -4.415055|   -6.819684|    0.824723|    0.012256|
|         836|   -4.421469|   -6.820557|    0.824720|    0.012257|
|         837|   -4.429986|   -6.821632|    0.824716|    0.012257|
|         838|   -4.440663|   -6.822870|    0.824712|    0.012257|
|         839|   -4.453117|   -6.824239|    0.824707|    0.012257|
|         840|   -4.466578|   -6.825701|    0.824702|    0.012257|
|         841|   -4.480000|   -6.827219|    0.824696|    0.012257|
|         842|   -4.492263|   -6.828769|    0.824690|    0.012257|
|         843|   -4.502449|   -6.830302|    0.824683|    0.012257|
|         844|   -4.510127|   -6.831800|    0.824676|    0.012257|
|         845|   -4.515491|   -6.833245|    0.824669|    0.012257|
|         846|   -4.519272|   -6.834623|    0.824661|    0.012257|
|         847|   -4.522481|   -6.835921|    0.824653|    0.012257|
|         848|   -4.526106|   -6.837130|    0.824644|    0.012257|
|         849|   -4.530898|   -6.838248|    0.824635|    0.012257|
|         850|   -4.537262|   -6.839281|    0.824626|    0.012257|
|         851|   -4.545257|   -6.840217|    0.824616|    0.012257|
|         852|   -4.554657|   -6.841056|    0.824606|    0.012256|
|         853|   -4.565045|   -6.841813|    0.824596|    0.012256|
|         854|   -4.575926|   -6.842494|    0.824585|    0.012256|
|         855|   -4.586837|   -6.843091|    0.824574|    0.012256|
|         856|   -4.597444|   -6.843594|    0.824563|    0.012256|
|         857|   -4.607587|   -6.844005|    0.824551|    0.012256|
|         858|   -4.617290|   -6.844329|    0.824539|    0.012256|
|         859|   -4.626719|   -6.844561|    0.824526|    0.012256|
|         860|   -4.636117|   -6.844722|    0.824514|    0.012256|
|         861|   -4.645735|   -6.844834|    0.824500|    0.012256|
|         862|   -4.655786|   -6.844876|    0.824487|    0.012255|
|         863|   -4.666415|   -6.844874|    0.824473|    0.012255|
|         864|   -4.677696|   -6.844847|    0.824459|    0.012255|
|         865|   -4.689646|   -6.844813|    0.824445|    0.012255|
|         866|   -4.702245|   -6.844795|    0.824431|    0.012255|
|         867|   -4.715453|   -6.844823|    0.824416|    0.012255|
|         868|   -4.729236|   -6.844929|    0.824402|    0.012255|
|         869|   -4.743568|   -6.845148|    0.824387|    0.012255|
|         870|   -4.758436|   -6.845514|    0.824373|    0.012254|
|         871|   -4.773836|   -6.846055|    0.824359|    0.012254|
|         872|   -4.789764|   -6.846798|    0.824345|    0.012254|
|         873|   -4.806205|   -6.847762|    0.824332|    0.012254|
|         874|   -4.823129|   -6.848956|    0.824319|    0.012254|
|         875|   -4.840477|   -6.850379|    0.824307|    0.012254|
|         876|   -4.858161|   -6.852022|    0.824295|    0.012254|
|         877|   -4.876065|   -6.853863|    0.824284|    0.012254|
|         878|   -4.894041|   -6.855869|    0.824274|    0.012254|
|         879|   -4.911914|   -6.857996|    0.824265|    0.012254|
|         880|   -4.929485|   -6.860193|    0.824257|    0.012254|
|         881|   -4.946540|   -6.862407|    0.824249|    0.012254|
|         882|   -4.962852|   -6.864567|    0.824243|    0.012254|
|         883|   -4.978193|   -6.866605|    0.824238|    0.012254|
|         884|   -4.992348|   -6.868466|    0.824233|    0.012254|
|         885|   -5.005127|   -6.870087|    0.824230|    0.012254|
|         886|   -5.016378|   -6.871413|    0.824228|    0.012254|
|         887|   -5.026003|   -6.872405|    0.824227|    0.012254|
|         888|   -5.033962|   -6.873044|    0.824227|    0.012255|
|         889|   -5.040279|   -6.873324|    0.824228|    0.012255|
|         890|   -5.045040|   -6.873262|    0.824230|    0.012255|
|         891|   -5.048377|   -6.872890|    0.824234|    0.012255|
|         892|   -5.050465|   -6.872256|    0.824238|    0.012255|
|         893|   -5.051498|   -6.871419|    0.824243|    0.012255|
|         894|   -5.051679|   -6.870448|    0.824249|    0.012256|
|         895|   -5.051209|   -6.869417|    0.824256|    0.012256|
|         896|   -5.050274|   -6.868401|    0.824263|    0.012256|
|         897|   -5.049043|   -6.867473|    0.824272|    0.012256|
|         898|   -5.047664|   -6.866698|    0.824281|    0.012257|
|         899|   -5.046260|   -6.866133|    0.824290|    0.012257|
|         900|   -5.044937|   -6.865825|    0.824300|    0.012257|
|         901|   -5.043778|   -6.865805|    0.824311|    0.012236|
+-----------------------------------------------------------------------+
|Fixed CL Mode                           |Value                         |
+-----------------------------------------------------------------------+
|Current CL                              |0.824311                      |
|Target CL                               |0.824                         |
|Previous AOA                            |2.7923                        |
[...]
|        5298|   -6.026313|   -7.957027|    0.824237|    0.012256|
|        5299|   -6.032584|   -7.961082|    0.824237|    0.012256|
|        5300|   -6.038539|   -7.965229|    0.824237|    0.012256|
|        5301|   -6.044143|   -7.969481|    0.824238|    0.012256|
|        5302|   -6.049371|   -7.973849|    0.824238|    0.012256|
|        5303|   -6.054206|   -7.978337|    0.824238|    0.012256|
|        5304|   -6.058641|   -7.982948|    0.824238|    0.012256|
|        5305|   -6.062677|   -7.987678|    0.824238|    0.012256|
|        5306|   -6.066326|   -7.992524|    0.824238|    0.012256|
|        5307|   -6.069608|   -7.997479|    0.824238|    0.012256|
|        5308|   -6.072550|   -8.002534|    0.824239|    0.012256|
|        5309|   -6.075186|   -8.007681|    0.824239|    0.012256|
|        5310|   -6.077554|   -8.012911|    0.824239|    0.012256|
|        5311|   -6.079698|   -8.018215|    0.824239|    0.012256|
|        5312|   -6.081662|   -8.023586|    0.824239|    0.012256|
|        5313|   -6.083491|   -8.029016|    0.824239|    0.012256|
|        5314|   -6.085232|   -8.034502|    0.824240|    0.012256|
|        5315|   -6.086928|   -8.040039|    0.824240|    0.012256|
|        5316|   -6.088619|   -8.045625|    0.824240|    0.012256|
|        5317|   -6.090345|   -8.051259|    0.824240|    0.012256|
|        5318|   -6.092139|   -8.056943|    0.824240|    0.012256|
|        5319|   -6.094029|   -8.062678|    0.824240|    0.012256|
|        5320|   -6.096040|   -8.068465|    0.824241|    0.012256|
|        5321|   -6.098189|   -8.074306|    0.824241|    0.012256|
|        5322|   -6.100490|   -8.080203|    0.824241|    0.012256|
|        5323|   -6.102950|   -8.086157|    0.824241|    0.012256|
|        5324|   -6.105568|   -8.092168|    0.824242|    0.012256|
|        5325|   -6.108342|   -8.098233|    0.824242|    0.012257|
|        5326|   -6.111260|   -8.104351|    0.824242|    0.012257|
|        5327|   -6.114307|   -8.110515|    0.824242|    0.012257|
|        5328|   -6.117462|   -8.116720|    0.824242|    0.012257|
|        5329|   -6.120702|   -8.122956|    0.824243|    0.012257|
|        5330|   -6.123997|   -8.129214|    0.824243|    0.012257|
|        5331|   -6.127316|   -8.135483|    0.824243|    0.012257|
|        5332|   -6.130626|   -8.141750|    0.824243|    0.012257|
|        5333|   -6.133892|   -8.148002|    0.824244|    0.012257|
|        5334|   -6.137080|   -8.154226|    0.824244|    0.012257|
|        5335|   -6.140157|   -8.160409|    0.824244|    0.012257|
|        5336|   -6.143092|   -8.166539|    0.824244|    0.012258|
|        5337|   -6.145858|   -8.172605|    0.824245|    0.012258|
|        5338|   -6.148432|   -8.178598|    0.824245|    0.012258|
|        5339|   -6.150797|   -8.184510|    0.824245|    0.012258|
|        5340|   -6.152944|   -8.190337|    0.824245|    0.012258|
|        5341|   -6.154868|   -8.196077|    0.824245|    0.012258|
|        5342|   -6.156573|   -8.201729|    0.824246|    0.012258|
|        5343|   -6.158070|   -8.207298|    0.824246|    0.012258|
|        5344|   -6.159374|   -8.212788|    0.824246|    0.012258|
|        5345|   -6.160509|   -8.218208|    0.824246|    0.012258|
|        5346|   -6.161503|   -8.223568|    0.824246|    0.012258|
|        5347|   -6.162389|   -8.228881|    0.824247|    0.012258|
|        5348|   -6.163202|   -8.234161|    0.824247|    0.012258|
|        5349|   -6.163980|   -8.239422|    0.824247|    0.012259|
|        5350|   -6.164763|   -8.244680|    0.824247|    0.012259|
|        5351|   -6.165589|   -8.249951|    0.824247|    0.012259|
|        5352|   -6.166497|   -8.255251|    0.824248|    0.012259|
|        5353|   -6.167523|   -8.260594|    0.824248|    0.012259|
|        5354|   -6.168703|   -8.265996|    0.824248|    0.012259|
|        5355|   -6.170067|   -8.271468|    0.824248|    0.012259|
|        5356|   -6.171644|   -8.277021|    0.824248|    0.012259|
|        5357|   -6.173459|   -8.282667|    0.824248|    0.012259|
|        5358|   -6.175532|   -8.288411|    0.824249|    0.012259|
|        5359|   -6.177880|   -8.294259|    0.824249|    0.012259|
|        5360|   -6.180516|   -8.300214|    0.824249|    0.012259|
|        5361|   -6.183447|   -8.306278|    0.824249|    0.012259|
|        5362|   -6.186677|   -8.312448|    0.824249|    0.012259|
|        5363|   -6.190205|   -8.318721|    0.824249|    0.012259|
|        5364|   -6.194025|   -8.325092|    0.824249|    0.012259|
|        5365|   -6.198128|   -8.331552|    0.824249|    0.012259|
|        5366|   -6.202500|   -8.338093|    0.824249|    0.012259|
|        5367|   -6.207121|   -8.344701|    0.824250|    0.012259|
|        5368|   -6.211970|   -8.351366|    0.824250|    0.012259|
|        5369|   -6.217018|   -8.358072|    0.824250|    0.012259|
|        5370|   -6.222236|   -8.364805|    0.824250|    0.012259|
|        5371|   -6.227589|   -8.371550|    0.824250|    0.012259|
|        5372|   -6.233040|   -8.378290|    0.824250|    0.012259|
|        5373|   -6.238548|   -8.385009|    0.824250|    0.012259|
|        5374|   -6.244073|   -8.391693|    0.824250|    0.012259|
|        5375|   -6.249570|   -8.398325|    0.824250|    0.012259|
|        5376|   -6.254997|   -8.404893|    0.824251|    0.012258|
|        5377|   -6.260308|   -8.411383|    0.824251|    0.012258|
|        5378|   -6.265463|   -8.417783|    0.824251|    0.012258|
|        5379|   -6.270422|   -8.424083|    0.824251|    0.012258|
|        5380|   -6.275148|   -8.430275|    0.824251|    0.012258|
|        5381|   -6.279608|   -8.436349|    0.824251|    0.012258|
|        5382|   -6.283775|   -8.442299|    0.824251|    0.012258|
|        5383|   -6.287628|   -8.448119|    0.824252|    0.012258|
|        5384|   -6.291149|   -8.453802|    0.824252|    0.012258|
|        5385|   -6.294331|   -8.459341|    0.824252|    0.012258|
|        5386|   -6.297168|   -8.464731|    0.824252|    0.012258|
|        5387|   -6.299663|   -8.469963|    0.824252|    0.012258|
|        5388|   -6.301823|   -8.475026|    0.824252|    0.012258|
|        5389|   -6.303661|   -8.479910|    0.824253|    0.012258|
|        5390|   -6.305194|   -8.484601|    0.824253|    0.012257|
|        5391|   -6.306439|   -8.489082|    0.824253|    0.012257|
|        5392|   -6.307420|   -8.493334|    0.824253|    0.012257|
|        5393|   -6.308159|   -8.497336|    0.824254|    0.012257|
|        5394|   -6.308679|   -8.501064|    0.824254|    0.012257|
|        5395|   -6.309003|   -8.504493|    0.824254|    0.012257|
|        5396|   -6.309155|   -8.507597|    0.824254|    0.012257|
|        5397|   -6.309156|   -8.510350|    0.824255|    0.012257|
|        5398|   -6.309026|   -8.512728|    0.824255|    0.012257|
|        5399|   -6.308782|   -8.514709|    0.824255|    0.012257|
|        5400|   -6.308441|   -8.516273|    0.824256|    0.012257|
|        5401|   -6.308017|   -8.517406|    0.824256|    0.012256|
|        5402|   -6.307522|   -8.518100|    0.824256|    0.012256|
|        5403|   -6.306968|   -8.518353|    0.824257|    0.012256|
|        5404|   -6.306363|   -8.518169|    0.824257|    0.012256|
|        5405|   -6.305715|   -8.517560|    0.824257|    0.012256|
|        5406|   -6.305031|   -8.516545|    0.824258|    0.012256|
|        5407|   -6.304315|   -8.515150|    0.824258|    0.012256|
|        5408|   -6.303574|   -8.513404|    0.824258|    0.012256|
|        5409|   -6.302811|   -8.511345|    0.824259|    0.012256|
|        5410|   -6.302030|   -8.509011|    0.824259|    0.012256|
|        5411|   -6.301235|   -8.506443|    0.824259|    0.012256|
|        5412|   -6.300428|   -8.503685|    0.824260|    0.012256|
|        5413|   -6.299614|   -8.500779|    0.824260|    0.012256|
|        5414|   -6.298796|   -8.497766|    0.824261|    0.012255|
|        5415|   -6.297977|   -8.494686|    0.824261|    0.012255|
|        5416|   -6.297162|   -8.491575|    0.824261|    0.012255|
|        5417|   -6.296354|   -8.488465|    0.824262|    0.012255|
|        5418|   -6.295558|   -8.485385|    0.824262|    0.012255|
|        5419|   -6.294780|   -8.482361|    0.824262|    0.012255|
|        5420|   -6.294024|   -8.479411|    0.824262|    0.012255|
|        5421|   -6.293298|   -8.476553|    0.824263|    0.012255|
|        5422|   -6.292607|   -8.473799|    0.824263|    0.012255|
|        5423|   -6.291959|   -8.471156|    0.824263|    0.012255|
|        5424|   -6.291362|   -8.468630|    0.824264|    0.012255|
|        5425|   -6.290826|   -8.466222|    0.824264|    0.012255|
|        5426|   -6.290359|   -8.463932|    0.824264|    0.012255|
|        5427|   -6.289971|   -8.461756|    0.824265|    0.012255|
|        5428|   -6.289675|   -8.459690|    0.824265|    0.012255|
|        5429|   -6.289481|   -8.457726|    0.824265|    0.012255|
|        5430|   -6.289402|   -8.455859|    0.824265|    0.012255|
|        5431|   -6.289450|   -8.454080|    0.824266|    0.012255|
|        5432|   -6.289637|   -8.452382|    0.824266|    0.012255|
|        5433|   -6.289978|   -8.450756|    0.824266|    0.012255|
|        5434|   -6.290486|   -8.449196|    0.824266|    0.012255|
|        5435|   -6.291172|   -8.447695|    0.824267|    0.012255|
|        5436|   -6.292050|   -8.446247|    0.824267|    0.012255|
|        5437|   -6.293132|   -8.444847|    0.824267|    0.012255|
|        5438|   -6.294428|   -8.443491|    0.824267|    0.012255|
|        5439|   -6.295948|   -8.442175|    0.824267|    0.012255|
|        5440|   -6.297702|   -8.440898|    0.824268|    0.012255|
|        5441|   -6.299696|   -8.439656|    0.824268|    0.012255|
|        5442|   -6.301937|   -8.438451|    0.824268|    0.012255|
|        5443|   -6.304427|   -8.437280|    0.824268|    0.012256|
|        5444|   -6.307168|   -8.436145|    0.824268|    0.012256|
|        5445|   -6.310158|   -8.435045|    0.824269|    0.012256|
|        5446|   -6.313396|   -8.433982|    0.824269|    0.012256|
|        5447|   -6.316873|   -8.432955|    0.824269|    0.012256|
|        5448|   -6.320581|   -8.431967|    0.824269|    0.012256|
|        5449|   -6.324509|   -8.431017|    0.824269|    0.012256|
|        5450|   -6.328640|   -8.430106|    0.824269|    0.012256|
|        5451|   -6.332957|   -8.429235|    0.824270|    0.012256|
|        5452|   -6.337438|   -8.428403|    0.824270|    0.012256|
|        5453|   -6.342058|   -8.427611|    0.824270|    0.012256|
|        5454|   -6.346790|   -8.426859|    0.824270|    0.012256|
|        5455|   -6.351603|   -8.426145|    0.824270|    0.012256|
|        5456|   -6.356465|   -8.425470|    0.824270|    0.012256|
|        5457|   -6.361339|   -8.424833|    0.824270|    0.012257|
|        5458|   -6.366190|   -8.424233|    0.824270|    0.012257|
|        5459|   -6.370978|   -8.423668|    0.824270|    0.012257|
|        5460|   -6.375665|   -8.423139|    0.824271|    0.012257|
|        5461|   -6.380211|   -8.422643|    0.824271|    0.012257|
|        5462|   -6.384579|   -8.422180|    0.824271|    0.012257|
|        5463|   -6.388733|   -8.421748|    0.824271|    0.012257|
|        5464|   -6.392639|   -8.421347|    0.824271|    0.012257|
|        5465|   -6.396265|   -8.420974|    0.824271|    0.012257|
|        5466|   -6.399587|   -8.420628|    0.824271|    0.012257|
|        5467|   -6.402583|   -8.420307|    0.824271|    0.012257|
|        5468|   -6.405237|   -8.420011|    0.824271|    0.012257|
|        5469|   -6.407539|   -8.419736|    0.824271|    0.012257|
|        5470|   -6.409486|   -8.419481|    0.824271|    0.012258|
|        5471|   -6.411079|   -8.419243|    0.824271|    0.012258|
|        5472|   -6.412327|   -8.419020|    0.824271|    0.012258|
|        5473|   -6.413243|   -8.418809|    0.824271|    0.012258|
|        5474|   -6.413846|   -8.418606|    0.824271|    0.012258|
|        5475|   -6.414160|   -8.418409|    0.824271|    0.012258|
|        5476|   -6.414211|   -8.418214|    0.824271|    0.012258|
|        5477|   -6.414029|   -8.418017|    0.824271|    0.012258|
|        5478|   -6.413646|   -8.417814|    0.824271|    0.012258|
|        5479|   -6.413095|   -8.417602|    0.824271|    0.012258|
|        5480|   -6.412410|   -8.417375|    0.824271|    0.012258|
|        5481|   -6.411624|   -8.417131|    0.824271|    0.012258|
|        5482|   -6.410771|   -8.416865|    0.824271|    0.012258|
|        5483|   -6.409882|   -8.416573|    0.824271|    0.012258|
|        5484|   -6.408989|   -8.416251|    0.824271|    0.012258|
|        5485|   -6.408118|   -8.415897|    0.824271|    0.012258|
|        5486|   -6.407298|   -8.415506|    0.824271|    0.012258|
|        5487|   -6.406552|   -8.415077|    0.824271|    0.012258|
|        5488|   -6.405902|   -8.414606|    0.824271|    0.012258|
|        5489|   -6.405368|   -8.414092|    0.824271|    0.012258|
|        5490|   -6.404967|   -8.413534|    0.824271|    0.012258|
|        5491|   -6.404714|   -8.412930|    0.824271|    0.012258|
|        5492|   -6.404622|   -8.412281|    0.824272|    0.012258|
|        5493|   -6.404702|   -8.411586|    0.824272|    0.012258|
|        5494|   -6.404962|   -8.410845|    0.824272|    0.012258|
|        5495|   -6.405409|   -8.410060|    0.824272|    0.012258|
|        5496|   -6.406048|   -8.409233|    0.824272|    0.012258|
|        5497|   -6.406883|   -8.408364|    0.824272|    0.012258|
|        5498|   -6.407915|   -8.407457|    0.824272|    0.012258|
|        5499|   -6.409146|   -8.406512|    0.824272|    0.012243|
+-----------------------------------------------------------------------+
|Fixed CL Mode (Finite Difference)       |Value                         |
+-----------------------------------------------------------------------+
|Delta CL / Delta AoA                    |0.272158                      |
|Delta CD / Delta CL                     |0.0168135                     |
|Delta CMz / Delta CL                    |0.0254926                     |
+-----------------------------------------------------------------------+
Writing Flow Meta-Data file: flow.meta

----------------------------- Solver Exit -------------------------------

Maximum number of iterations reached (ITER = 5500) before convergence.
+-----------------------------------------------------------------------+
|      Convergence Field     |     Value    |   Criterion  |  Converged |
+-----------------------------------------------------------------------+
|                    rms[Rho]|      -6.40915|         < -12|          No|
+-----------------------------------------------------------------------+
-------------------------------------------------------------------------

--------------------------- Finalizing Solver ---------------------------
Deleted CNumerics container.
Deleted CIntegration container.
Deleted CSolver container.
Deleted CIteration container.
Deleted CInterface container.
Deleted CGeometry container.
Deleted CFreeFormDefBox class.
Deleted CSurfaceMovement class.
Deleted CVolumetricMovement class.
Deleted CConfig container.
Deleted nInst container.
Deleted COutput class.
-------------------------------------------------------------------------

------------------------- Exit Success (SU2_CFD) ------------------------


-------------------------------------------------------------------------
|    ___ _   _ ___                                                      |
|   / __| | | |_  )   Release 8.0.0 "Harrier"                           |
|   \__ \ |_| |/ /                                                      |
|   |___/\___//___|   Suite (Solution Exporting Code)                   |
|                                                                       |
-------------------------------------------------------------------------
| SU2 Project Website: https://su2code.github.io                        |
|                                                                       |
| The SU2 Project is maintained by the SU2 Foundation                   |
| (http://su2foundation.org)                                            |
-------------------------------------------------------------------------
| Copyright 2012-2023, SU2 Contributors                                 |
|                                                                       |
| SU2 is free software; you can redistribute it and/or                  |
| modify it under the terms of the GNU Lesser General Public            |
| License as published by the Free Software Foundation; either          |
| version 2.1 of the License, or (at your option) any later version.    |
|                                                                       |
| SU2 is distributed in the hope that it will be useful,                |
| but WITHOUT ANY WARRANTY; without even the implied warranty of        |
| MERCHANTABILITY or FITNESS FOR A PARTICULAR PURPOSE. See the GNU      |
| Lesser General Public License for more details.                       |
|                                                                       |
| You should have received a copy of the GNU Lesser General Public      |
| License along with SU2. If not, see <http://www.gnu.org/licenses/>.   |
-------------------------------------------------------------------------

----------------- Physical Case Definition ( Zone 0 ) -------------------
Input mesh file name: mesh_RAE2822_turb_deform.su2

-------------------- Output Information ( Zone 0 ) ----------------------
The tabular file format is CSV (.csv).
Flow variables file name: flow.

------------- Config File Boundary Information ( Zone 0 ) ---------------
+-----------------------------------------------------------------------+
|                        Marker Type|                        Marker Name|
+-----------------------------------------------------------------------+
|                          Far-field|                           FARFIELD|
+-----------------------------------------------------------------------+
|                     Heat flux wall|                            AIRFOIL|
+-----------------------------------------------------------------------+
Two dimensional problem.
13937 grid points before partitioning.
22842 volume elements before partitioning.
2 surface markers.
192 boundary elements in index 0 (Marker = AIRFOIL).
40 boundary elements in index 1 (Marker = FARFIELD).
Executing the partitioning functions.
Building the graph adjacency structure.
Calling ParMETIS... graph partitioning complete (831 edge cuts).
Distributing ParMETIS coloring.
Rebalancing vertices.
Rebalancing volume element connectivity.
Rebalancing markers and surface elements.
14875 vertices including ghost points. 
23674 interior elements including halo cells. 
18780 triangles.
4894 quadrilaterals.
Establishing MPI communication patterns.
Identify vertices.
Storing a mapping from global to local point index.

------------------------- Solution Postprocessing -----------------------
Reading and storing the solution from restart_flow.
Volume output fields: COORDINATES, SOLUTION
  Info: Ignoring the following screen output fields:
  RMS_DENSITY, RMS_NU_TILDE, LIFT, DRAG
Screen output fields: INNER_ITER
  Info: Ignoring the following history output groups:
  RMS_RES, AERO_COEFF
History output group(s): ITER
Warning: No (valid) fields chosen for convergence monitoring. Convergence monitoring inactive.
Warning: No (valid) fields chosen for time convergence monitoring. Time convergence monitoring inactive.
|Paraview                           |flow.vtu                           |
|Paraview surface                   |surface_flow.vtu                   |
|CSV file                           |surface_flow.csv                   |

------------------------- Finalize Solver -------------------------
Deleted CGeometry container.
Deleted CSolver class.
Deleted CConfig container.
Deleted COutput class.

Completed in 0.015068 seconds on 6 cores.

------------------------- Exit Success (SU2_SOL) ------------------------

