
-------------------------------------------------------------------------
|    ___ _   _ ___                                                      |
|   / __| | | |_  )   Release 8.0.0 "Harrier"                           |
|   \__ \ |_| |/ /                                                      |
|   |___/\___//___|   Suite (Computational Fluid Dynamics Code)         |
|                                                                       |
-------------------------------------------------------------------------
| SU2 Project Website: https://su2code.github.io                        |
|                                                                       |
| The SU2 Project is maintained by the SU2 Foundation                   |
| (http://su2foundation.org)                                            |
-------------------------------------------------------------------------
| Copyright 2012-2023, SU2 Contributors                                 |
|                                                                       |
| SU2 is free software; you can redistribute it and/or                  |
| modify it under the terms of the GNU Lesser General Public            |
| License as published by the Free Software Foundation; either          |
| version 2.1 of the License, or (at your option) any later version.    |
|                                                                       |
| SU2 is distributed in the hope that it will be useful,                |
| but WITHOUT ANY WARRANTY; without even the implied warranty of        |
| MERCHANTABILITY or FITNESS FOR A PARTICULAR PURPOSE. See the GNU      |
| Lesser General Public License for more details.                       |
|                                                                       |
| You should have received a copy of the GNU Lesser General Public      |
| License along with SU2. If not, see <http://www.gnu.org/licenses/>.   |
-------------------------------------------------------------------------

Parsing config file for zone 0

----------------- Physical Case Definition ( Zone 0 ) -------------------
Compressible RANS equations.
Turbulence model: Spalart-Allmaras-noft2
Hybrid RANS/LES: No Hybrid RANS/LES
Mach number: 0.734.
Angle of attack (AoA): 2.31 deg, and angle of sideslip (AoS): 0 deg.
Reynolds number: 6.5e+06. Reference length 1.
Fixed CL mode, target value: 0.824.
Reading and writing binary SU2 native restart files.
Read flow solution from: solution_flow.dat.
Dimensional simulation.
The reference area is 1 m^2.
The semi-span will be computed using the max y(3D) value.
The reference length is 1 m.
Reference origin for moment evaluation is (0.25, 0, 0).
Surface(s) where the force coefficients are evaluated: AIRFOIL.

Surface(s) plotted in the output file: AIRFOIL.
Surface(s) affected by the design variables: AIRFOIL.
Input mesh file name: mesh_RAE2822_turb_deform.su2

--------------- Space Numerical Integration ( Zone 0 ) ------------------
Jameson-Schmidt-Turkel scheme (2nd order in space) for the flow inviscid terms.
JST viscous coefficients (2nd & 4th): 0.5, 0.02.
The method includes a grid stretching correction (p = 0.3).
Scalar upwind solver for the turbulence model.
First order integration in space.
Average of gradients with correction (viscous flow terms).
Average of gradients with correction (viscous turbulence terms).
Gradient for viscous and source terms: inverse-distance weighted Least-Squares.

--------------- Time Numerical Integration  ( Zone 0 ) ------------------
Local time stepping (steady state simulation).
Euler implicit method for the flow equations.
FGMRES is used for solving the linear system.
Using a ILU(0) preconditioning.
Convergence criteria of the linear solver: 1e-06.
Max number of linear iterations: 10.
No CFL adaptation.
Courant-Friedrichs-Lewy number:       10
Euler implicit time integration for the turbulence model.

------------------ Convergence Criteria  ( Zone 0 ) ---------------------
Maximum number of solver subiterations: 5500.
Begin convergence monitoring at iteration 10.
Residual minimum value: 1e-12.
Cauchy series min. value: 1e-06.
Number of Cauchy elements: 100.
Begin windowed time average at iteration 0.

-------------------- Output Information ( Zone 0 ) ----------------------
File writing frequency: 
+------------------------------------+
|                     File| Frequency|
+------------------------------------+
|                  RESTART|     10000|
|                 PARAVIEW|     10000|
|         SURFACE_PARAVIEW|     10000|
|              SURFACE_CSV|     10000|
+------------------------------------+
Writing the convergence history file every 1 inner iterations.
Writing the screen convergence history every 1 inner iterations.
The tabular file format is CSV (.csv).
Convergence history file name: history_direct.
Forces breakdown file name: forces_breakdown.dat.
Surface file name: surface_flow.
Volume file name: flow.
Restart file name: restart_flow.dat.

------------- Config File Boundary Information ( Zone 0 ) ---------------
+-----------------------------------------------------------------------+
|                        Marker Type|                        Marker Name|
+-----------------------------------------------------------------------+
|                          Far-field|                           FARFIELD|
+-----------------------------------------------------------------------+
|                     Heat flux wall|                            AIRFOIL|
+-----------------------------------------------------------------------+

-------------------- Output Preprocessing ( Zone 0 ) --------------------

WARNING: SURFACE_PRESSURE_DROP can only be computed for at least 2 surfaces (outlet, inlet, ...)

Screen output fields: INNER_ITER, RMS_DENSITY, RMS_NU_TILDE, LIFT, DRAG
History output group(s): ITER, RMS_RES, AERO_COEFF
Convergence field(s): RMS_DENSITY
Warning: No (valid) fields chosen for time convergence monitoring. Time convergence monitoring inactive.
Volume output fields: COORDINATES, SOLUTION, PRIMITIVE

------------------- Geometry Preprocessing ( Zone 0 ) -------------------
Two dimensional problem.
13937 grid points before partitioning.
22842 volume elements before partitioning.
2 surface markers.
192 boundary elements in index 0 (Marker = AIRFOIL).
40 boundary elements in index 1 (Marker = FARFIELD).
Executing the partitioning functions.
Building the graph adjacency structure.
Calling ParMETIS... graph partitioning complete (831 edge cuts).
Distributing ParMETIS coloring.
Rebalancing vertices.
Rebalancing volume element connectivity.
Rebalancing markers and surface elements.
14875 vertices including ghost points. 
23674 interior elements including halo cells. 
18780 triangles.
4894 quadrilaterals.
Establishing MPI communication patterns.
Setting point connectivity.
Renumbering points (Reverse Cuthill McKee Ordering).
Recomputing point connectivity.
Setting element connectivity.
Checking the numerical grid orientation.
All volume elements are correctly orientend.
All surface elements are correctly orientend.
Identifying edges and vertices.
Setting the control volume structure.
Area of the computational grid: 32209.9.
Searching for the closest normal neighbors to the surfaces.
Storing a mapping from global to local point index.
Compute the surface curvature.
Max K: 170.81. Mean K: 7.73068. Standard deviation K: 23.482.
Checking for periodicity.
Computing mesh quality statistics for the dual control volumes.
+--------------------------------------------------------------+
|           Mesh Quality Metric|        Minimum|        Maximum|
+--------------------------------------------------------------+
|    Orthogonality Angle (deg.)|        75.1788|        89.9991|
|     CV Face Area Aspect Ratio|        1.00353|        3358.51|
|           CV Sub-Volume Ratio|         1.0005|        1214.57|
+--------------------------------------------------------------+
Finding max control volume width.
Communicating number of neighbors.
Wetted area = 2.02208 m.
Area projection in the x-plane = 0.124744 m, y-plane = 0.995873 m.
Max. coordinate in the x-direction = 1 m, y-direction = 0.0623176 m.
Min. coordinate in the x-direction = 0 m, y-direction = -0.0598369 m.
Computing wall distances.

-------------------- Solver Preprocessing ( Zone 0 ) --------------------
WARNING: AoA in the solution file (2.78945 deg.) +
         AoA offset in mesh file (0 deg.) = 2.78945 deg.
WARNING: SU2 will use the dCD/dCL provided in the direct solution file: 0.0176926.
WARNING: SU2 will use the dCMz/dCL provided in the direct solution file: -0.00194752.
Viscous flow: Computing pressure using the ideal gas law
based on the free-stream temperature and a density computed
from the Reynolds number.
Force coefficients computed using free-stream values.

-- Models:
+------------------------------------------------------------------------------+
|          Viscosity Model|        Conductivity Model|              Fluid Model|
+------------------------------------------------------------------------------+
|               SUTHERLAND|          CONSTANT_PRANDTL|             STANDARD_AIR|
+------------------------------------------------------------------------------+
-- Fluid properties:
+------------------------------------------------------------------------------+
|                  Name|    Dim. value|    Ref. value|      Unit|Non-dim. value|
+------------------------------------------------------------------------------+
|        Ref. Viscosity|     1.716e-05|             1|   N.s/m^2|     1.716e-05|
|      Sutherland Temp.|        273.15|             1|         K|        273.15|
|     Sutherland Const.|         110.4|             1|         K|         110.4|
+------------------------------------------------------------------------------+
|        Prandtl (Lam.)|             -|             -|         -|          0.71|
|       Prandtl (Turb.)|             -|             -|         -|           0.9|
+------------------------------------------------------------------------------+
|          Gas Constant|       287.058|             1|  N.m/kg.K|       287.058|
|      Spec. Heat Ratio|             -|             -|         -|           1.4|
+------------------------------------------------------------------------------+
-- Initial and free-stream conditions:
+------------------------------------------------------------------------------+
|                  Name|    Dim. value|    Ref. value|      Unit|Non-dim. value|
+------------------------------------------------------------------------------+
|       Static Pressure|         38515|             1|        Pa|         38515|
|               Density|      0.465631|             1|    kg/m^3|      0.465631|
|           Temperature|        288.15|             1|         K|        288.15|
|          Total Energy|        237984|             1|   m^2/s^2|        237984|
|            Velocity-X|       249.482|             1|       m/s|       249.482|
|            Velocity-Y|       12.1557|             1|       m/s|       12.1557|
|    Velocity Magnitude|       249.778|             1|       m/s|       249.778|
+------------------------------------------------------------------------------+
|             Viscosity|    1.7893e-05|             1|   N.s/m^2|    1.7893e-05|
|          Conductivity|             -|             1|   W/m^2.K|             -|
|     Turb. Kin. Energy|       233.959|             1|   m^2/s^2|       233.959|
|     Spec. Dissipation|        608834|             1|       1/s|        608834|
+------------------------------------------------------------------------------+
|           Mach Number|             -|             -|         -|         0.734|
|       Reynolds Number|             -|             -|         -|       6.5e+06|
+------------------------------------------------------------------------------+
Initialize Jacobian structure (Navier-Stokes). MG level: 0.
Initialize Jacobian structure (SA model).

------------------- Numerics Preprocessing ( Zone 0 ) -------------------

----------------- Integration Preprocessing ( Zone 0 ) ------------------

------------------- Iteration Preprocessing ( Zone 0 ) ------------------
Euler/Navier-Stokes/RANS fluid iteration.

------------------------------ Begin Solver -----------------------------

Simulation Run using the Single-zone Driver
WARNING: SU2 was not compiled for an AVX-capable architecture. Performance could be better,
         see https://su2code.github.io/docs_v7/Build-SU2-Linux-MacOS/#compiler-optimizations
+----------------------------------------------------------------+
|  Inner_Iter|    rms[Rho]|     rms[nu]|          CL|          CD|
+----------------------------------------------------------------+
|           0|   -4.637068|   -5.803453|    0.823946|    0.011799|
|           1|   -4.693958|   -5.894221|    0.823885|    0.011771|
|           2|   -4.750676|   -5.998009|    0.823835|    0.011765|
|           3|   -4.789001|   -6.109241|    0.823800|    0.011770|
|           4|   -4.813582|   -6.222435|    0.823780|    0.011776|
|           5|   -4.830040|   -6.327996|    0.823770|    0.011778|
|           6|   -4.840528|   -6.410550|    0.823765|    0.011776|
|           7|   -4.846059|   -6.456526|    0.823763|    0.011770|
|           8|   -4.847378|   -6.468165|    0.823764|    0.011762|
|           9|   -4.844677|   -6.461076|    0.823769|    0.011755|
|          10|   -4.837812|   -6.448775|    0.823779|    0.011749|
|          11|   -4.827035|   -6.436680|    0.823795|    0.011745|
|          12|   -4.813358|   -6.425049|    0.823816|    0.011743|
|          13|   -4.798265|   -6.412916|    0.823842|    0.011744|
|          14|   -4.783225|   -6.400234|    0.823869|    0.011747|
|          15|   -4.769387|   -6.387978|    0.823898|    0.011752|
|          16|   -4.757494|   -6.377166|    0.823927|    0.011759|
|          17|   -4.747898|   -6.367906|    0.823954|    0.011767|
|          18|   -4.740589|   -6.359386|    0.823978|    0.011776|
|          19|   -4.735249|   -6.350347|    0.824000|    0.011785|
|          20|   -4.731326|   -6.339808|    0.824017|    0.011794|
|          21|   -4.728157|   -6.327610|    0.824030|    0.011803|
|          22|   -4.725106|   -6.314469|    0.824039|    0.011811|
|          23|   -4.721685|   -6.301608|    0.824044|    0.011819|
|          24|   -4.717617|   -6.290272|    0.824046|    0.011825|
|          25|   -4.712833|   -6.281408|    0.824044|    0.011831|
|          26|   -4.707421|   -6.275547|    0.824040|    0.011836|
|          27|   -4.701567|   -6.272820|    0.824034|    0.011840|
|          28|   -4.695491|   -6.273050|    0.824026|    0.011844|
|          29|   -4.689413|   -6.275841|    0.824017|    0.011847|
|          30|   -4.683534|   -6.280649|    0.824007|    0.011850|
|          31|   -4.678019|   -6.286837|    0.823996|    0.011852|
|          32|   -4.672997|   -6.293714|    0.823986|    0.011854|
|          33|   -4.668551|   -6.300584|    0.823975|    0.011855|
|          34|   -4.664727|   -6.306793|    0.823965|    0.011856|
|          35|   -4.661527|   -6.311790|    0.823955|    0.011857|
|          36|   -4.658914|   -6.315176|    0.823946|    0.011858|
|          37|   -4.656823|   -6.316744|    0.823937|    0.011858|
|          38|   -4.655168|   -6.316496|    0.823929|    0.011859|
|          39|   -4.653848|   -6.314616|    0.823922|    0.011859|
|          40|   -4.652770|   -6.311438|    0.823915|    0.011859|
|          41|   -4.651846|   -6.307388|    0.823909|    0.011859|
|          42|   -4.651009|   -6.302931|    0.823903|    0.011859|
|          43|   -4.650221|   -6.298531|    0.823898|    0.011859|
|          44|   -4.649462|   -6.294620|    0.823894|    0.011859|
|          45|   -4.648740|   -6.291574|    0.823890|    0.011859|
|          46|   -4.648076|   -6.289697|    0.823887|    0.011860|
|          47|   -4.647502|   -6.289213|    0.823884|    0.011860|
|          48|   -4.647049|   -6.290254|    0.823882|    0.011860|
|          49|   -4.646747|   -6.292853|    0.823881|    0.011861|
|          50|   -4.646620|   -6.296945|    0.823880|    0.011862|
|          51|   -4.646686|   -6.302364|    0.823881|    0.011863|
|          52|   -4.646953|   -6.308857|    0.823881|    0.011864|
|          53|   -4.647427|   -6.316093|    0.823883|    0.011865|
|          54|   -4.648110|   -6.323693|    0.823885|    0.011866|
|          55|   -4.649003|   -6.331255|    0.823887|    0.011868|
|          56|   -4.650108|   -6.338398|    0.823890|    0.011869|
|          57|   -4.651431|   -6.344798|    0.823893|    0.011871|
|          58|   -4.652975|   -6.350224|    0.823896|    0.011873|
|          59|   -4.654743|   -6.354554|    0.823899|    0.011874|
|          60|   -4.656733|   -6.357787|    0.823901|    0.011876|
|          61|   -4.658936|   -6.360032|    0.823904|    0.011878|
|          62|   -4.661337|   -6.361476|    0.823906|    0.011879|
|          63|   -4.663914|   -6.362360|    0.823909|    0.011881|
|          64|   -4.666641|   -6.362938|    0.823910|    0.011882|
|          65|   -4.669496|   -6.363446|    0.823912|    0.011884|
|          66|   -4.672458|   -6.364081|    0.823913|    0.011885|
|          67|   -4.675516|   -6.364985|    0.823914|    0.011887|
|          68|   -4.678667|   -6.366235|    0.823915|    0.011888|
|          69|   -4.681916|   -6.367847|    0.823916|    0.011890|
|          70|   -4.685275|   -6.369784|    0.823916|    0.011891|
|          71|   -4.688752|   -6.371968|    0.823917|    0.011893|
|          72|   -4.692350|   -6.374301|    0.823917|    0.011895|
|          73|   -4.696065|   -6.376686|    0.823918|    0.011897|
|          74|   -4.699881|   -6.379038|    0.823918|    0.011899|
|          75|   -4.703768|   -6.381306|    0.823919|    0.011901|
|          76|   -4.707692|   -6.383473|    0.823919|    0.011903|
|          77|   -4.711613|   -6.385561|    0.823919|    0.011905|
|          78|   -4.715497|   -6.387619|    0.823920|    0.011907|
|          79|   -4.719315|   -6.389719|    0.823920|    0.011909|
|          80|   -4.723055|   -6.391939|    0.823919|    0.011912|
|          81|   -4.726717|   -6.394357|    0.823919|    0.011914|
|          82|   -4.730316|   -6.397038|    0.823918|    0.011916|
|          83|   -4.733877|   -6.400037|    0.823917|    0.011918|
|          84|   -4.737430|   -6.403389|    0.823916|    0.011921|
|          85|   -4.741002|   -6.407116|    0.823915|    0.011923|
|          86|   -4.744616|   -6.411231|    0.823914|    0.011925|
|          87|   -4.748281|   -6.415734|    0.823912|    0.011927|
|          88|   -4.751993|   -6.420620|    0.823910|    0.011929|
|          89|   -4.755736|   -6.425879|    0.823909|    0.011931|
|          90|   -4.759476|   -6.431503|    0.823907|    0.011933|
|          91|   -4.763173|   -6.437480|    0.823906|    0.011934|
|          92|   -4.766774|   -6.443799|    0.823905|    0.011936|
|          93|   -4.770225|   -6.450448|    0.823904|    0.011938|
|          94|   -4.773469|   -6.457414|    0.823903|    0.011940|
|          95|   -4.776451|   -6.464686|    0.823903|    0.011942|
|          96|   -4.779122|   -6.472249|    0.823903|    0.011944|
|          97|   -4.781443|   -6.480090|    0.823903|    0.011946|
|          98|   -4.783383|   -6.488189|    0.823904|    0.011948|
|          99|   -4.784925|   -6.496523|    0.823905|    0.011950|
|         100|   -4.786063|   -6.505059|    0.823907|    0.011952|
|         101|   -4.786805|   -6.513764|    0.823908|    0.011961|
+-----------------------------------------------------------------------+
|Fixed CL Mode                           |Value                         |
+-----------------------------------------------------------------------+
|Current CL                              |0.823908                      |
|Target CL                               |0.824                         |
|Previous AOA                            |2.78945                       |
|Changed AoA by                          |0.000465531                   |
+-----------------------------------------------------------------------+
+----------------------------------------------------------------+
|  Inner_Iter|    rms[Rho]|     rms[nu]|          CL|          CD|
+----------------------------------------------------------------+
|         102|   -3.524812|   -6.521320|    0.823910|    0.011963|
|         103|   -3.907554|   -6.530887|    0.823912|    0.011966|
|         104|   -4.149568|   -6.540015|    0.823914|    0.011968|
|         105|   -4.227908|   -6.549038|    0.823916|    0.011971|
|         106|   -4.279233|   -6.557964|    0.823918|    0.011973|
|         107|   -4.342752|   -6.566756|    0.823920|    0.011976|
|         108|   -4.416806|   -6.575368|    0.823921|    0.011979|
|         109|   -4.487034|   -6.583758|    0.823923|    0.011981|
|         110|   -4.539255|   -6.591884|    0.823923|    0.011984|
|         111|   -4.570918|   -6.599714|    0.823924|    0.011986|
|         112|   -4.587940|   -6.607221|    0.823923|    0.011989|
|         113|   -4.595856|   -6.614381|    0.823923|    0.011992|
|         114|   -4.598323|   -6.621179|    0.823922|    0.011994|
|         115|   -4.598829|   -6.627603|    0.823920|    0.011996|
|         116|   -4.600627|   -6.633644|    0.823918|    0.011999|
|         117|   -4.605610|   -6.639299|    0.823915|    0.012001|
|         118|   -4.613798|   -6.644565|    0.823912|    0.012003|
|         119|   -4.623771|   -6.649446|    0.823908|    0.012005|
|         120|   -4.633667|   -6.653953|    0.823904|    0.012007|
|         121|   -4.642189|   -6.658100|    0.823900|    0.012008|
|         122|   -4.649069|   -6.661908|    0.823896|    0.012010|
|         123|   -4.654799|   -6.665400|    0.823892|    0.012011|
|         124|   -4.660024|   -6.668595|    0.823887|    0.012012|
|         125|   -4.665091|   -6.671515|    0.823882|    0.012014|
|         126|   -4.669969|   -6.674190|    0.823878|    0.012015|
|         127|   -4.674403|   -6.676655|    0.823873|    0.012016|
|         128|   -4.678103|   -6.678944|    0.823869|    0.012017|
|         129|   -4.680859|   -6.681087|    0.823865|    0.012018|
|         130|   -4.682574|   -6.683112|    0.823861|    0.012019|
|         131|   -4.683270|   -6.685054|    0.823858|    0.012019|
|         132|   -4.683080|   -6.686939|    0.823855|    0.012020|
|         133|   -4.682232|   -6.688791|    0.823852|    0.012021|
|         134|   -4.681003|   -6.690631|    0.823849|    0.012022|
|         135|   -4.679664|   -6.692479|    0.823847|    0.012023|
|         136|   -4.678424|   -6.694351|    0.823846|    0.012024|
|         137|   -4.677399|   -6.696265|    0.823844|    0.012025|
|         138|   -4.676611|   -6.698234|    0.823843|    0.012026|
|         139|   -4.676009|   -6.700267|    0.823842|    0.012027|
|         140|   -4.675492|   -6.702370|    0.823841|    0.012028|
|         141|   -4.674943|   -6.704545|    0.823840|    0.012029|
|         142|   -4.674269|   -6.706791|    0.823840|    0.012030|
|         143|   -4.673426|   -6.709109|    0.823840|    0.012032|
|         144|   -4.672439|   -6.711494|    0.823840|    0.012033|
|         145|   -4.671389|   -6.713944|    0.823840|    0.012034|
|         146|   -4.670403|   -6.716452|    0.823840|    0.012035|
|         147|   -4.669616|   -6.719012|    0.823840|    0.012036|
|         148|   -4.669148|   -6.721617|    0.823840|    0.012037|
|         149|   -4.669082|   -6.724260|    0.823840|    0.012039|
|         150|   -4.669448|   -6.726933|    0.823840|    0.012040|
|         151|   -4.670232|   -6.729633|    0.823840|    0.012041|
|         152|   -4.671386|   -6.732351|    0.823840|    0.012042|
|         153|   -4.672840|   -6.735083|    0.823840|    0.012042|
|         154|   -4.674519|   -6.737823|    0.823840|    0.012043|
|         155|   -4.676355|   -6.740561|    0.823840|    0.012044|
|         156|   -4.678298|   -6.743288|    0.823841|    0.012045|
|         157|   -4.680312|   -6.745991|    0.823841|    0.012045|
|         158|   -4.682380|   -6.748655|    0.823842|    0.012046|
|         159|   -4.684495|   -6.751266|    0.823842|    0.012046|
|         160|   -4.686657|   -6.753803|    0.823843|    0.012046|
|         161|   -4.688866|   -6.756249|    0.823844|    0.012046|
|         162|   -4.691124|   -6.758592|    0.823845|    0.012047|
|         163|   -4.693426|   -6.760842|    0.823847|    0.012047|
|         164|   -4.695770|   -6.762982|    0.823848|    0.012047|
|         165|   -4.698153|   -6.764999|    0.823850|    0.012047|
|         166|   -4.700574|   -6.766878|    0.823852|    0.012047|
|         167|   -4.703030|   -6.768606|    0.823854|    0.012047|
|         168|   -4.705529|   -6.770173|    0.823856|    0.012046|
|         169|   -4.708079|   -6.771571|    0.823858|    0.012046|
|         170|   -4.710693|   -6.772794|    0.823860|    0.012046|
|         171|   -4.713389|   -6.773851|    0.823863|    0.012046|
|         172|   -4.716185|   -6.774745|    0.823865|    0.012046|
|         173|   -4.719103|   -6.775479|    0.823868|    0.012045|
|         174|   -4.722160|   -6.776058|    0.823871|    0.012045|
|         175|   -4.725376|   -6.776488|    0.823873|    0.012045|
|         176|   -4.728762|   -6.776779|    0.823875|    0.012045|
|         177|   -4.732329|   -6.776941|    0.823878|    0.012044|
|         178|   -4.736080|   -6.776983|    0.823880|    0.012044|
|         179|   -4.740013|   -6.776912|    0.823882|    0.012044|
|         180|   -4.744118|   -6.776739|    0.823884|    0.012044|
|         181|   -4.748379|   -6.776478|    0.823886|    0.012043|
|         182|   -4.752770|   -6.776140|    0.823888|    0.012043|
|         183|   -4.757258|   -6.775734|    0.823889|    0.012043|
|         184|   -4.761802|   -6.775264|    0.823890|    0.012043|
|         185|   -4.766359|   -6.774745|    0.823891|    0.012042|
|         186|   -4.770878|   -6.774183|    0.823892|    0.012042|
|         187|   -4.775304|   -6.773586|    0.823892|    0.012042|
|         188|   -4.779582|   -6.772973|    0.823892|    0.012041|
|         189|   -4.783656|   -6.772362|    0.823892|    0.012041|
|         190|   -4.787474|   -6.771770|    0.823892|    0.012041|
|         191|   -4.790987|   -6.771209|    0.823892|    0.012040|
|         192|   -4.794156|   -6.770678|    0.823891|    0.012040|
|         193|   -4.796955|   -6.770190|    0.823890|    0.012040|
|         194|   -4.799365|   -6.769752|    0.823890|    0.012039|
|         195|   -4.801386|   -6.769376|    0.823889|    0.012039|
|         196|   -4.803030|   -6.769070|    0.823887|    0.012038|
|         197|   -4.804323|   -6.768850|    0.823886|    0.012038|
|         198|   -4.805304|   -6.768725|    0.823885|    0.012037|
|         199|   -4.806030|   -6.768692|    0.823884|    0.012037|
|         200|   -4.806564|   -6.768740|    0.823883|    0.012036|
|         201|   -4.806979|   -6.768825|    0.823881|    0.012044|
+-----------------------------------------------------------------------+
|Fixed CL Mode                           |Value                         |
+-----------------------------------------------------------------------+
|Current CL                              |0.823881                      |
|Target CL                               |0.824                         |
|Previous AOA                            |2.78992                       |
|Changed AoA by                          |0.000587477                   |
+-----------------------------------------------------------------------+
+----------------------------------------------------------------+
|  Inner_Iter|    rms[Rho]|     rms[nu]|          CL|          CD|
+----------------------------------------------------------------+
|         202|   -3.423932|   -6.762241|    0.823880|    0.012044|
|         203|   -3.805329|   -6.765658|    0.823879|    0.012043|
|         204|   -4.042392|   -6.766788|    0.823878|    0.012043|
|         205|   -4.118774|   -6.767555|    0.823876|    0.012043|
|         206|   -4.171673|   -6.768242|    0.823876|    0.012042|
|         207|   -4.239108|   -6.768897|    0.823875|    0.012042|
|         208|   -4.320257|   -6.769518|    0.823874|    0.012041|
|         209|   -4.401921|   -6.770095|    0.823873|    0.012041|
|         210|   -4.468957|   -6.770626|    0.823873|    0.012041|
|         211|   -4.515635|   -6.771109|    0.823873|    0.012041|
|         212|   -4.545366|   -6.771551|    0.823872|    0.012040|
|         213|   -4.562636|   -6.771969|    0.823872|    0.012040|
|         214|   -4.571062|   -6.772384|    0.823872|    0.012040|
|         215|   -4.575211|   -6.772814|    0.823872|    0.012040|
|         216|   -4.580047|   -6.773270|    0.823873|    0.012040|
|         217|   -4.588925|   -6.773759|    0.823873|    0.012040|
|         218|   -4.602629|   -6.774286|    0.823874|    0.012040|
|         219|   -4.619798|   -6.774860|    0.823874|    0.012040|
|         220|   -4.638128|   -6.775486|    0.823875|    0.012040|
|         221|   -4.655763|   -6.776174|    0.823876|    0.012040|
|         222|   -4.672139|   -6.776928|    0.823876|    0.012040|
|         223|   -4.687849|   -6.777752|    0.823877|    0.012040|
|         224|   -4.703809|   -6.778651|    0.823878|    0.012040|
|         225|   -4.720520|   -6.779627|    0.823879|    0.012041|
|         226|   -4.737838|   -6.780682|    0.823880|    0.012041|
|         227|   -4.755155|   -6.781820|    0.823881|    0.012041|
|         228|   -4.771712|   -6.783042|    0.823882|    0.012041|
|         229|   -4.786841|   -6.784348|    0.823883|    0.012042|
|         230|   -4.800086|   -6.785741|    0.823885|    0.012042|
|         231|   -4.811268|   -6.787219|    0.823886|    0.012042|
|         232|   -4.820534|   -6.788784|    0.823887|    0.012043|
|         233|   -4.828350|   -6.790436|    0.823888|    0.012043|
|         234|   -4.835406|   -6.792175|    0.823890|    0.012043|
|         235|   -4.842446|   -6.794000|    0.823891|    0.012044|
|         236|   -4.850093|   -6.795911|    0.823893|    0.012044|
|         237|   -4.858722|   -6.797909|    0.823895|    0.012044|
|         238|   -4.868411|   -6.799994|    0.823896|    0.012045|
|         239|   -4.878943|   -6.802170|    0.823898|    0.012045|
|         240|   -4.889851|   -6.804428|    0.823900|    0.012046|
|         241|   -4.900509|   -6.806751|    0.823903|    0.012046|
|         242|   -4.910270|   -6.809146|    0.823905|    0.012046|
|         243|   -4.918639|   -6.811620|    0.823908|    0.012047|
|         244|   -4.925419|   -6.814186|    0.823910|    0.012047|
|         245|   -4.930768|   -6.816850|    0.823913|    0.012048|
|         246|   -4.935152|   -6.819623|    0.823916|    0.012048|
|         247|   -4.939197|   -6.822505|    0.823919|    0.012049|
|         248|   -4.943520|   -6.825492|    0.823923|    0.012049|
|         249|   -4.948592|   -6.828594|    0.823926|    0.012049|
|         250|   -4.954670|   -6.831825|    0.823930|    0.012050|
|         251|   -4.961783|   -6.835188|    0.823933|    0.012050|
|         252|   -4.969777|   -6.838685|    0.823937|    0.012051|
|         253|   -4.978373|   -6.842313|    0.823942|    0.012051|
|         254|   -4.987246|   -6.846083|    0.823946|    0.012052|
|         255|   -4.996091|   -6.849997|    0.823950|    0.012052|
|         256|   -5.004681|   -6.854056|    0.823955|    0.012052|
|         257|   -5.012906|   -6.858259|    0.823959|    0.012053|
|         258|   -5.020758|   -6.862609|    0.823964|    0.012053|
|         259|   -5.028318|   -6.867110|    0.823969|    0.012053|
|         260|   -5.035704|   -6.871777|    0.823974|    0.012054|
|         261|   -5.043045|   -6.876607|    0.823979|    0.012054|
|         262|   -5.050450|   -6.881594|    0.823984|    0.012054|
|         263|   -5.057989|   -6.886728|    0.823989|    0.012054|
|         264|   -5.065692|   -6.892004|    0.823994|    0.012055|
|         265|   -5.073557|   -6.897416|    0.823999|    0.012055|
|         266|   -5.081566|   -6.902962|    0.824003|    0.012055|
|         267|   -5.089690|   -6.908638|    0.824008|    0.012055|
|         268|   -5.097901|   -6.914442|    0.824013|    0.012055|
|         269|   -5.106178|   -6.920374|    0.824018|    0.012055|
|         270|   -5.114516|   -6.926435|    0.824022|    0.012055|
|         271|   -5.122902|   -6.932629|    0.824027|    0.012055|
|         272|   -5.131320|   -6.938953|    0.824031|    0.012055|
|         273|   -5.139750|   -6.945407|    0.824035|    0.012055|
|         274|   -5.148161|   -6.951988|    0.824039|    0.012054|
|         275|   -5.156512|   -6.958698|    0.824042|    0.012054|
|         276|   -5.164769|   -6.965538|    0.824046|    0.012054|
|         277|   -5.172885|   -6.972510|    0.824049|    0.012054|
|         278|   -5.180807|   -6.979614|    0.824052|    0.012053|
|         279|   -5.188486|   -6.986852|    0.824054|    0.012053|
|         280|   -5.195877|   -6.994225|    0.824056|    0.012052|
|         281|   -5.202941|   -7.001733|    0.824058|    0.012052|
|         282|   -5.209649|   -7.009376|    0.824060|    0.012051|
|         283|   -5.215978|   -7.017153|    0.824061|    0.012051|
|         284|   -5.221916|   -7.025065|    0.824062|    0.012050|
|         285|   -5.227460|   -7.033111|    0.824063|    0.012050|
|         286|   -5.232613|   -7.041291|    0.824063|    0.012049|
|         287|   -5.237393|   -7.049604|    0.824063|    0.012049|
|         288|   -5.241822|   -7.058051|    0.824063|    0.012048|
|         289|   -5.245927|   -7.066630|    0.824063|    0.012047|
|         290|   -5.249741|   -7.075341|    0.824062|    0.012047|
|         291|   -5.253299|   -7.084183|    0.824061|    0.012046|
|         292|   -5.256636|   -7.093156|    0.824060|    0.012045|
|         293|   -5.259787|   -7.102259|    0.824059|    0.012045|
|         294|   -5.262789|   -7.111493|    0.824057|    0.012044|
|         295|   -5.265678|   -7.120857|    0.824055|    0.012043|
|         296|   -5.268474|   -7.130347|    0.824053|    0.012043|
|         297|   -5.271201|   -7.139961|    0.824051|    0.012042|
|         298|   -5.273878|   -7.149692|    0.824049|    0.012041|
|         299|   -5.276521|   -7.159530|    0.824046|    0.012040|
|         300|   -5.279141|   -7.169463|    0.824044|    0.012040|
|         301|   -5.281746|   -7.179475|    0.824041|    0.012036|
+-----------------------------------------------------------------------+
|Fixed CL Mode                           |Value                         |
+-----------------------------------------------------------------------+
|Current CL                              |0.824041                      |
|Target CL                               |0.824                         |
|Previous AOA                            |2.7905                        |
|Changed AoA by                          |-0.000219068                  |
+-----------------------------------------------------------------------+
+----------------------------------------------------------------+
|  Inner_Iter|    rms[Rho]|     rms[nu]|          CL|          CD|
+----------------------------------------------------------------+
|         302|   -3.852631|   -7.183472|    0.824039|    0.012035|
|         303|   -4.237566|   -7.196601|    0.824036|    0.012034|
|         304|   -4.483636|   -7.207519|    0.824033|    0.012034|
|         305|   -4.563015|   -7.217992|    0.824030|    0.012033|
|         306|   -4.615487|   -7.228258|    0.824027|    0.012033|
|         307|   -4.682740|   -7.238332|    0.824025|    0.012032|
|         308|   -4.764563|   -7.248177|    0.824022|    0.012031|
|         309|   -4.847020|   -7.257739|    0.824019|    0.012031|
|         310|   -4.913455|   -7.266963|    0.824016|    0.012030|
|         311|   -4.957384|   -7.275787|    0.824014|    0.012030|
|         312|   -4.982921|   -7.284154|    0.824011|    0.012029|
|         313|   -4.995758|   -7.292020|    0.824009|    0.012029|
|         314|   -5.000457|   -7.299353|    0.824006|    0.012028|
|         315|   -5.001971|   -7.306121|    0.824004|    0.012028|
|         316|   -5.005099|   -7.312298|    0.824002|    0.012027|
|         317|   -5.012760|   -7.317859|    0.824000|    0.012027|
|         318|   -5.025256|   -7.322789|    0.823999|    0.012027|
|         319|   -5.040788|   -7.327089|    0.823997|    0.012026|
|         320|   -5.056702|   -7.330776|    0.823996|    0.012026|
|         321|   -5.070940|   -7.333869|    0.823995|    0.012026|
|         322|   -5.082928|   -7.336406|    0.823994|    0.012026|
|         323|   -5.093379|   -7.338440|    0.823993|    0.012025|
|         324|   -5.103407|   -7.340046|    0.823992|    0.012025|
|         325|   -5.113766|   -7.341301|    0.823992|    0.012025|
|         326|   -5.124625|   -7.342285|    0.823992|    0.012025|
|         327|   -5.135736|   -7.343076|    0.823991|    0.012025|
|         328|   -5.146695|   -7.343743|    0.823992|    0.012025|
|         329|   -5.157103|   -7.344342|    0.823992|    0.012025|
|         330|   -5.166645|   -7.344919|    0.823992|    0.012026|
|         331|   -5.175133|   -7.345512|    0.823993|    0.012026|
|         332|   -5.182562|   -7.346147|    0.823994|    0.012026|
|         333|   -5.189155|   -7.346849|    0.823995|    0.012026|
|         334|   -5.195320|   -7.347625|    0.823996|    0.012027|
|         335|   -5.201557|   -7.348471|    0.823997|    0.012027|
|         336|   -5.208324|   -7.349382|    0.823998|    0.012028|
|         337|   -5.215937|   -7.350348|    0.823999|    0.012028|
|         338|   -5.224513|   -7.351353|    0.824000|    0.012028|
|         339|   -5.233951|   -7.352371|    0.824002|    0.012029|
|         340|   -5.243956|   -7.353376|    0.824003|    0.012030|
|         341|   -5.254091|   -7.354336|    0.824004|    0.012030|
|         342|   -5.263868|   -7.355221|    0.824005|    0.012031|
|         343|   -5.272863|   -7.355997|    0.824007|    0.012031|
|         344|   -5.280824|   -7.356635|    0.824008|    0.012032|
|         345|   -5.287735|   -7.357108|    0.824009|    0.012033|
|         346|   -5.293800|   -7.357397|    0.824010|    0.012033|
|         347|   -5.299366|   -7.357488|    0.824011|    0.012034|
|         348|   -5.304807|   -7.357378|    0.824012|    0.012035|
|         349|   -5.310426|   -7.357069|    0.824012|    0.012035|
|         350|   -5.316392|   -7.356566|    0.824013|    0.012036|
|         351|   -5.322716|   -7.355883|    0.824013|    0.012036|
|         352|   -5.329278|   -7.355037|    0.824013|    0.012037|
|         353|   -5.335870|   -7.354049|    0.824013|    0.012038|
|         354|   -5.342257|   -7.352943|    0.824013|    0.012038|
|         355|   -5.348235|   -7.351745|    0.824013|    0.012039|
|         356|   -5.353663|   -7.350481|    0.824013|    0.012040|
|         357|   -5.358489|   -7.349180|    0.824012|    0.012040|
|         358|   -5.362743|   -7.347869|    0.824011|    0.012041|
|         359|   -5.366514|   -7.346573|    0.824010|    0.012041|
|         360|   -5.369921|   -7.345314|    0.824009|    0.012042|
|         361|   -5.373081|   -7.344112|    0.824008|    0.012042|
|         362|   -5.376087|   -7.342981|    0.824006|    0.012043|
|         363|   -5.379006|   -7.341935|    0.824005|    0.012043|
|         364|   -5.381874|   -7.340984|    0.824003|    0.012044|
|         365|   -5.384704|   -7.340136|    0.824002|    0.012044|
|         366|   -5.387495|   -7.339396|    0.824000|    0.012044|
|         367|   -5.390238|   -7.338765|    0.823998|    0.012045|
|         368|   -5.392921|   -7.338243|    0.823996|    0.012045|
|         369|   -5.395531|   -7.337826|    0.823994|    0.012045|
|         370|   -5.398055|   -7.337510|    0.823992|    0.012046|
|         371|   -5.400481|   -7.337289|    0.823991|    0.012046|
|         372|   -5.402793|   -7.337156|    0.823989|    0.012046|
|         373|   -5.404974|   -7.337106|    0.823987|    0.012046|
|         374|   -5.406995|   -7.337135|    0.823986|    0.012046|
|         375|   -5.408832|   -7.337240|    0.823984|    0.012046|
|         376|   -5.410458|   -7.337420|    0.823983|    0.012046|
|         377|   -5.411846|   -7.337676|    0.823981|    0.012046|
|         378|   -5.412972|   -7.338010|    0.823980|    0.012046|
|         379|   -5.413818|   -7.338424|    0.823979|    0.012046|
|         380|   -5.414370|   -7.338922|    0.823978|    0.012046|
|         381|   -5.414620|   -7.339508|    0.823978|    0.012046|
|         382|   -5.414571|   -7.340188|    0.823977|    0.012046|
|         383|   -5.414229|   -7.340966|    0.823977|    0.012046|
|         384|   -5.413610|   -7.341850|    0.823977|    0.012046|
|         385|   -5.412735|   -7.342843|    0.823977|    0.012046|
|         386|   -5.411632|   -7.343952|    0.823977|    0.012046|
|         387|   -5.410332|   -7.345181|    0.823977|    0.012046|
|         388|   -5.408871|   -7.346532|    0.823978|    0.012045|
|         389|   -5.407291|   -7.348010|    0.823978|    0.012045|
|         390|   -5.405633|   -7.349613|    0.823979|    0.012045|
|         391|   -5.403937|   -7.351341|    0.823980|    0.012045|
|         392|   -5.402247|   -7.353193|    0.823981|    0.012044|
|         393|   -5.400603|   -7.355164|    0.823982|    0.012044|
|         394|   -5.399045|   -7.357251|    0.823983|    0.012044|
|         395|   -5.397610|   -7.359448|    0.823985|    0.012043|
|         396|   -5.396333|   -7.361750|    0.823986|    0.012043|
|         397|   -5.395242|   -7.364151|    0.823988|    0.012043|
|         398|   -5.394361|   -7.366644|    0.823989|    0.012042|
|         399|   -5.393716|   -7.369223|    0.823991|    0.012042|
|         400|   -5.393328|   -7.371881|    0.823992|    0.012042|
|         401|   -5.393210|   -7.374614|    0.823994|    0.012042|
+-----------------------------------------------------------------------+
|Fixed CL Mode                           |Value                         |
+-----------------------------------------------------------------------+
|Current CL                              |0.823994                      |
|Target CL                               |0.824                         |
|Previous AOA                            |2.79028                       |
|Changed AoA by                          |3.75524e-05                   |
+-----------------------------------------------------------------------+
+----------------------------------------------------------------+
|  Inner_Iter|    rms[Rho]|     rms[nu]|          CL|          CD|
+----------------------------------------------------------------+
|         402|   -4.612845|   -7.377000|    0.823996|    0.012041|
|         403|   -4.970527|   -7.380084|    0.823998|    0.012041|
|         404|   -5.159399|   -7.383077|    0.824000|    0.012040|
|         405|   -5.209117|   -7.386113|    0.824002|    0.012040|
|         406|   -5.239450|   -7.389217|    0.824004|    0.012039|
|         407|   -5.274154|   -7.392394|    0.824005|    0.012039|
|         408|   -5.309832|   -7.395646|    0.824007|    0.012038|
|         409|   -5.339273|   -7.398975|    0.824009|    0.012038|
|         410|   -5.359298|   -7.402387|    0.824011|    0.012037|
|         411|   -5.371704|   -7.405889|    0.824013|    0.012037|
|         412|   -5.379521|   -7.409487|    0.824015|    0.012037|
|         413|   -5.384702|   -7.413190|    0.824017|    0.012036|
|         414|   -5.388375|   -7.417007|    0.824019|    0.012036|
|         415|   -5.391519|   -7.420944|    0.824021|    0.012035|
|         416|   -5.395037|   -7.425009|    0.824023|    0.012035|
|         417|   -5.399480|   -7.429208|    0.824025|    0.012034|
|         418|   -5.404870|   -7.433544|    0.824027|    0.012034|
|         419|   -5.410826|   -7.438018|    0.824029|    0.012033|
|         420|   -5.416851|   -7.442637|    0.824031|    0.012033|
|         421|   -5.422606|   -7.447402|    0.824033|    0.012033|
|         422|   -5.428017|   -7.452315|    0.824035|    0.012032|
|         423|   -5.433203|   -7.457374|    0.824037|    0.012032|
|         424|   -5.438340|   -7.462575|    0.824039|    0.012032|
|         425|   -5.443553|   -7.467914|    0.824041|    0.012031|
|         426|   -5.448887|   -7.473384|    0.824042|    0.012031|
|         427|   -5.454332|   -7.478975|    0.824044|    0.012031|
|         428|   -5.459851|   -7.484675|    0.824046|    0.012030|
|         429|   -5.465397|   -7.490474|    0.824048|    0.012030|
|         430|   -5.470917|   -7.496361|    0.824049|    0.012030|
|         431|   -5.476357|   -7.502326|    0.824051|    0.012030|
|         432|   -5.481671|   -7.508358|    0.824053|    0.012030|
|         433|   -5.486835|   -7.514441|    0.824054|    0.012029|
|         434|   -5.491847|   -7.520560|    0.824056|    0.012029|
|         435|   -5.496723|   -7.526700|    0.824057|    0.012029|
|         436|   -5.501482|   -7.532845|    0.824058|    0.012029|
|         437|   -5.506141|   -7.538980|    0.824060|    0.012029|
|         438|   -5.510698|   -7.545091|    0.824061|    0.012029|
|         439|   -5.515135|   -7.551164|    0.824063|    0.012029|
|         440|   -5.519412|   -7.557190|    0.824064|    0.012029|
|         441|   -5.523476|   -7.563156|    0.824065|    0.012029|
|         442|   -5.527272|   -7.569053|    0.824066|    0.012029|
|         443|   -5.530751|   -7.574870|    0.824068|    0.012029|
|         444|   -5.533884|   -7.580600|    0.824069|    0.012029|
|         445|   -5.536665|   -7.586237|    0.824070|    0.012029|
|         446|   -5.539108|   -7.591776|    0.824071|    0.012030|
|         447|   -5.541243|   -7.597215|    0.824072|    0.012030|
|         448|   -5.543104|   -7.602549|    0.824073|    0.012030|
|         449|   -5.544722|   -7.607776|    0.824074|    0.012030|
|         450|   -5.546119|   -7.612893|    0.824075|    0.012030|
|         451|   -5.547306|   -7.617899|    0.824076|    0.012031|
|         452|   -5.548287|   -7.622794|    0.824077|    0.012031|
|         453|   -5.549064|   -7.627581|    0.824079|    0.012031|
|         454|   -5.549639|   -7.632260|    0.824080|    0.012031|
|         455|   -5.550022|   -7.636833|    0.824081|    0.012032|
|         456|   -5.550229|   -7.641302|    0.824082|    0.012032|
|         457|   -5.550287|   -7.645673|    0.824083|    0.012032|
|         458|   -5.550229|   -7.649956|    0.824084|    0.012033|
|         459|   -5.550093|   -7.654160|    0.824085|    0.012033|
|         460|   -5.549920|   -7.658299|    0.824086|    0.012034|
|         461|   -5.549752|   -7.662387|    0.824087|    0.012034|
|         462|   -5.549631|   -7.666439|    0.824088|    0.012034|
|         463|   -5.549594|   -7.670472|    0.824089|    0.012035|
|         464|   -5.549678|   -7.674502|    0.824090|    0.012035|
|         465|   -5.549920|   -7.678546|    0.824091|    0.012035|
|         466|   -5.550353|   -7.682619|    0.824091|    0.012036|
|         467|   -5.551009|   -7.686736|    0.824092|    0.012036|
|         468|   -5.551921|   -7.690909|    0.824093|    0.012037|
|         469|   -5.553117|   -7.695147|    0.824094|    0.012037|
|         470|   -5.554627|   -7.699454|    0.824095|    0.012037|
|         471|   -5.556478|   -7.703839|    0.824095|    0.012038|
|         472|   -5.558695|   -7.708308|    0.824096|    0.012038|
|         473|   -5.561300|   -7.712866|    0.824097|    0.012038|
|         474|   -5.564314|   -7.717516|    0.824097|    0.012039|
|         475|   -5.567756|   -7.722260|    0.824098|    0.012039|
|         476|   -5.571640|   -7.727099|    0.824098|    0.012039|
|         477|   -5.575981|   -7.732035|    0.824098|    0.012040|
|         478|   -5.580787|   -7.737066|    0.824099|    0.012040|
|         479|   -5.586065|   -7.742187|    0.824099|    0.012040|
|         480|   -5.591820|   -7.747393|    0.824099|    0.012040|
|         481|   -5.598050|   -7.752674|    0.824099|    0.012041|
|         482|   -5.604753|   -7.758022|    0.824099|    0.012041|
|         483|   -5.611922|   -7.763420|    0.824099|    0.012041|
|         484|   -5.619543|   -7.768859|    0.824099|    0.012041|
|         485|   -5.627600|   -7.774329|    0.824099|    0.012041|
|         486|   -5.636070|   -7.779819|    0.824099|    0.012041|
|         487|   -5.644926|   -7.785316|    0.824099|    0.012042|
|         488|   -5.654132|   -7.790808|    0.824098|    0.012042|
|         489|   -5.663646|   -7.796282|    0.824098|    0.012042|
|         490|   -5.673423|   -7.801724|    0.824098|    0.012042|
|         491|   -5.683406|   -7.807121|    0.824097|    0.012042|
|         492|   -5.693533|   -7.812459|    0.824097|    0.012042|
|         493|   -5.703735|   -7.817722|    0.824096|    0.012042|
|         494|   -5.713935|   -7.822894|    0.824096|    0.012042|
|         495|   -5.724052|   -7.827956|    0.824095|    0.012042|
|         496|   -5.734000|   -7.832891|    0.824095|    0.012042|
|         497|   -5.743692|   -7.837682|    0.824094|    0.012042|
|         498|   -5.753039|   -7.842311|    0.824094|    0.012041|
|         499|   -5.761956|   -7.846759|    0.824093|    0.012041|
|         500|   -5.770363|   -7.851013|    0.824093|    0.012041|
|         501|   -5.778189|   -7.855057|    0.824092|    0.012034|
+-----------------------------------------------------------------------+
|Fixed CL Mode                           |Value                         |
+-----------------------------------------------------------------------+
|Current CL                              |0.824092                      |
|Target CL                               |0.824                         |
|Previous AOA                            |2.79032                       |
|Changed AoA by                          |-0.000463806                  |
+-----------------------------------------------------------------------+
+----------------------------------------------------------------+
|  Inner_Iter|    rms[Rho]|     rms[nu]|          CL|          CD|
+----------------------------------------------------------------+
|         502|   -3.527035|   -7.564292|    0.824092|    0.012034|
|         503|   -3.911513|   -7.669680|    0.824091|    0.012034|
|         504|   -4.155890|   -7.713397|    0.824091|    0.012034|
|         505|   -4.235197|   -7.741174|    0.824091|    0.012034|
|         506|   -4.289249|   -7.762941|    0.824090|    0.012034|
|         507|   -4.359370|   -7.781104|    0.824090|    0.012034|
|         508|   -4.446206|   -7.796295|    0.824090|    0.012033|
|         509|   -4.537092|   -7.808858|    0.824089|    0.012033|
|         510|   -4.615389|   -7.819003|    0.824089|    0.012033|
|         511|   -4.672462|   -7.826670|    0.824089|    0.012033|
|         512|   -4.709834|   -7.831924|    0.824089|    0.012033|
|         513|   -4.731394|   -7.835305|    0.824089|    0.012033|
|         514|   -4.741080|   -7.837670|    0.824088|    0.012032|
|         515|   -4.744844|   -7.839676|    0.824088|    0.012032|
|         516|   -4.749389|   -7.841575|    0.824088|    0.012032|
|         517|   -4.759200|   -7.843360|    0.824089|    0.012032|
|         518|   -4.775327|   -7.845034|    0.824089|    0.012032|
|         519|   -4.795947|   -7.846724|    0.824089|    0.012032|
|         520|   -4.817866|   -7.848650|    0.824089|    0.012032|
|         521|   -4.838371|   -7.850990|    0.824089|    0.012031|
|         522|   -4.856569|   -7.853778|    0.824090|    0.012031|
|         523|   -4.873323|   -7.856915|    0.824090|    0.012031|
|         524|   -4.890086|   -7.860204|    0.824090|    0.012031|
|         525|   -4.907765|   -7.863446|    0.824091|    0.012031|
|         526|   -4.926338|   -7.866454|    0.824091|    0.012031|
|         527|   -4.945078|   -7.869120|    0.824092|    0.012031|
|         528|   -4.962981|   -7.871379|    0.824092|    0.012031|
|         529|   -4.979115|   -7.873192|    0.824093|    0.012031|
|         530|   -4.992806|   -7.874536|    0.824093|    0.012031|
|         531|   -5.003776|   -7.875418|    0.824094|    0.012031|
|         532|   -5.012241|   -7.875848|    0.824095|    0.012030|
|         533|   -5.018912|   -7.875829|    0.824095|    0.012030|
|         534|   -5.024846|   -7.875364|    0.824096|    0.012030|
|         535|   -5.031176|   -7.874425|    0.824097|    0.012030|
|         536|   -5.038854|   -7.872995|    0.824097|    0.012030|
|         537|   -5.048480|   -7.871020|    0.824098|    0.012030|
|         538|   -5.060240|   -7.868446|    0.824098|    0.012030|
|         539|   -5.073890|   -7.865231|    0.824099|    0.012030|
|         540|   -5.088798|   -7.861339|    0.824099|    0.012030|
|         541|   -5.104019|   -7.856753|    0.824100|    0.012030|
|         542|   -5.118468|   -7.851465|    0.824100|    0.012030|
|         543|   -5.131182|   -7.845498|    0.824101|    0.012030|
|         544|   -5.141607|   -7.838902|    0.824101|    0.012030|
|         545|   -5.149777|   -7.831732|    0.824101|    0.012030|
|         546|   -5.156293|   -7.824059|    0.824101|    0.012030|
|         547|   -5.162097|   -7.815961|    0.824101|    0.012030|
|         548|   -5.168180|   -7.807513|    0.824101|    0.012030|
|         549|   -5.175333|   -7.798786|    0.824100|    0.012030|
|         550|   -5.184019|   -7.789855|    0.824100|    0.012030|
|         551|   -5.194341|   -7.780797|    0.824099|    0.012030|
|         552|   -5.206088|   -7.771694|    0.824099|    0.012030|
|         553|   -5.218823|   -7.762636|    0.824098|    0.012030|
|         554|   -5.231992|   -7.753705|    0.824097|    0.012030|
|         555|   -5.245055|   -7.744987|    0.824096|    0.012030|
|         556|   -5.257591|   -7.736548|    0.824094|    0.012030|
|         557|   -5.269373|   -7.728472|    0.824093|    0.012030|
|         558|   -5.280390|   -7.720843|    0.824091|    0.012030|
|         559|   -5.290804|   -7.713744|    0.824089|    0.012030|
|         560|   -5.300883|   -7.707251|    0.824087|    0.012030|
|         561|   -5.310918|   -7.701434|    0.824085|    0.012030|
|         562|   -5.321159|   -7.696358|    0.824082|    0.012030|
|         563|   -5.331782|   -7.692074|    0.824080|    0.012030|
|         564|   -5.342882|   -7.688629|    0.824077|    0.012030|
|         565|   -5.354482|   -7.686056|    0.824074|    0.012030|
|         566|   -5.366560|   -7.684379|    0.824072|    0.012030|
|         567|   -5.379072|   -7.683607|    0.824069|    0.012030|
|         568|   -5.391975|   -7.683735|    0.824066|    0.012030|
|         569|   -5.405238|   -7.684743|    0.824063|    0.012030|
|         570|   -5.418843|   -7.686594|    0.824060|    0.012030|
|         571|   -5.432782|   -7.689232|    0.824057|    0.012030|
|         572|   -5.447049|   -7.692577|    0.824054|    0.012030|
|         573|   -5.461627|   -7.696527|    0.824052|    0.012029|
|         574|   -5.476484|   -7.700957|    0.824049|    0.012029|
|         575|   -5.491565|   -7.705714|    0.824047|    0.012029|
|         576|   -5.506790|   -7.710628|    0.824045|    0.012029|
|         577|   -5.522057|   -7.715506|    0.824042|    0.012029|
|         578|   -5.537248|   -7.720148|    0.824041|    0.012029|
|         579|   -5.552230|   -7.724348|    0.824039|    0.012029|
|         580|   -5.566861|   -7.727913|    0.824038|    0.012029|
|         581|   -5.581001|   -7.730673|    0.824037|    0.012029|
|         582|   -5.594512|   -7.732493|    0.824036|    0.012029|
|         583|   -5.607266|   -7.733292|    0.824035|    0.012029|
|         584|   -5.619152|   -7.733041|    0.824035|    0.012029|
|         585|   -5.630080|   -7.731772|    0.824035|    0.012029|
|         586|   -5.639988|   -7.729574|    0.824035|    0.012029|
|         587|   -5.648844|   -7.726580|    0.824035|    0.012029|
|         588|   -5.656647|   -7.722959|    0.824036|    0.012029|
|         589|   -5.663429|   -7.718900|    0.824037|    0.012029|
|         590|   -5.669252|   -7.714600|    0.824039|    0.012029|
|         591|   -5.674199|   -7.710251|    0.824040|    0.012029|
|         592|   -5.678370|   -7.706034|    0.824042|    0.012029|
|         593|   -5.681875|   -7.702105|    0.824044|    0.012029|
|         594|   -5.684824|   -7.698599|    0.824046|    0.012029|
|         595|   -5.687323|   -7.695626|    0.824048|    0.012029|
|         596|   -5.689471|   -7.693267|    0.824050|    0.012030|
|         597|   -5.691350|   -7.691579|    0.824053|    0.012030|
|         598|   -5.693030|   -7.690593|    0.824056|    0.012030|
|         599|   -5.694565|   -7.690315|    0.824058|    0.012030|
|         600|   -5.695993|   -7.690732|    0.824061|    0.012030|
|         601|   -5.697341|   -7.691808|    0.824064|    0.012025|
+-----------------------------------------------------------------------+
|Fixed CL Mode                           |Value                         |
+-----------------------------------------------------------------------+
|Current CL                              |0.824064                      |
|Target CL                               |0.824                         |
|Previous AOA                            |2.78986                       |
|Changed AoA by                          |-0.000306547                  |
+-----------------------------------------------------------------------+
+----------------------------------------------------------------+
|  Inner_Iter|    rms[Rho]|     rms[nu]|          CL|          CD|
+----------------------------------------------------------------+
|         602|   -3.706824|   -7.591717|    0.824067|    0.012025|
|         603|   -4.090433|   -7.639059|    0.824070|    0.012025|
|         604|   -4.332126|   -7.656662|    0.824073|    0.012025|
|         605|   -4.409985|   -7.668058|    0.824077|    0.012025|
|         606|   -4.463606|   -7.677294|    0.824080|    0.012025|
|         607|   -4.533330|   -7.685268|    0.824083|    0.012025|
|         608|   -4.619633|   -7.692214|    0.824086|    0.012025|
|         609|   -4.710184|   -7.698248|    0.824089|    0.012025|
|         610|   -4.789008|   -7.703410|    0.824092|    0.012025|
|         611|   -4.847787|   -7.707659|    0.824095|    0.012025|
|         612|   -4.887627|   -7.710975|    0.824097|    0.012025|
|         613|   -4.911682|   -7.713464|    0.824100|    0.012025|
|         614|   -4.923265|   -7.715303|    0.824103|    0.012025|
|         615|   -4.928105|   -7.716635|    0.824105|    0.012025|
|         616|   -4.933063|   -7.717523|    0.824108|    0.012025|
|         617|   -4.942917|   -7.717978|    0.824110|    0.012025|
|         618|   -4.958953|   -7.718025|    0.824112|    0.012025|
|         619|   -4.979528|   -7.717742|    0.824114|    0.012025|
|         620|   -5.001596|   -7.717232|    0.824116|    0.012025|
|         621|   -5.022562|   -7.716590|    0.824118|    0.012025|
|         622|   -5.041589|   -7.715876|    0.824120|    0.012025|
|         623|   -5.059523|   -7.715120|    0.824121|    0.012025|
|         624|   -5.077722|   -7.714334|    0.824122|    0.012025|
|         625|   -5.096947|   -7.713533|    0.824124|    0.012025|
|         626|   -5.116969|   -7.712735|    0.824125|    0.012025|
|         627|   -5.136823|   -7.711980|    0.824126|    0.012025|
|         628|   -5.155284|   -7.711311|    0.824126|    0.012025|
|         629|   -5.171282|   -7.710771|    0.824127|    0.012025|
|         630|   -5.184150|   -7.710398|    0.824127|    0.012025|
|         631|   -5.193759|   -7.710223|    0.824128|    0.012025|
|         632|   -5.200562|   -7.710268|    0.824128|    0.012025|
|         633|   -5.205517|   -7.710545|    0.824128|    0.012025|
|         634|   -5.209855|   -7.711045|    0.824128|    0.012025|
|         635|   -5.214779|   -7.711750|    0.824128|    0.012025|
|         636|   -5.221211|   -7.712631|    0.824127|    0.012025|
|         637|   -5.229656|   -7.713649|    0.824127|    0.012025|
|         638|   -5.240167|   -7.714763|    0.824126|    0.012025|
|         639|   -5.252363|   -7.715929|    0.824126|    0.012025|
|         640|   -5.265490|   -7.717106|    0.824125|    0.012025|
|         641|   -5.278530|   -7.718255|    0.824124|    0.012025|
|         642|   -5.290400|   -7.719345|    0.824123|    0.012025|
|         643|   -5.300226|   -7.720350|    0.824122|    0.012025|
|         644|   -5.307604|   -7.721252|    0.824121|    0.012025|
|         645|   -5.312732|   -7.722043|    0.824120|    0.012025|
|         646|   -5.316317|   -7.722716|    0.824119|    0.012025|
|         647|   -5.319331|   -7.723269|    0.824118|    0.012025|
|         648|   -5.322717|   -7.723701|    0.824116|    0.012025|
|         649|   -5.327187|   -7.724009|    0.824115|    0.012025|
|         650|   -5.333120|   -7.724193|    0.824114|    0.012025|
|         651|   -5.340560|   -7.724250|    0.824112|    0.012025|
|         652|   -5.349278|   -7.724176|    0.824111|    0.012026|
|         653|   -5.358866|   -7.723968|    0.824109|    0.012026|
|         654|   -5.368845|   -7.723621|    0.824107|    0.012026|
|         655|   -5.378777|   -7.723123|    0.824106|    0.012026|
|         656|   -5.388346|   -7.722463|    0.824104|    0.012026|
|         657|   -5.397410|   -7.721627|    0.824102|    0.012026|
|         658|   -5.405996|   -7.720606|    0.824100|    0.012026|
|         659|   -5.414264|   -7.719391|    0.824098|    0.012026|
|         660|   -5.422439|   -7.717979|    0.824096|    0.012026|
|         661|   -5.430752|   -7.716373|    0.824094|    0.012026|
|         662|   -5.439392|   -7.714584|    0.824092|    0.012026|
|         663|   -5.448482|   -7.712627|    0.824090|    0.012026|
|         664|   -5.458080|   -7.710526|    0.824088|    0.012027|
|         665|   -5.468186|   -7.708313|    0.824086|    0.012027|
|         666|   -5.478769|   -7.706028|    0.824083|    0.012027|
|         667|   -5.489780|   -7.703712|    0.824081|    0.012027|
|         668|   -5.501170|   -7.701416|    0.824079|    0.012027|
|         669|   -5.512901|   -7.699190|    0.824077|    0.012027|
|         670|   -5.524941|   -7.697085|    0.824074|    0.012027|
|         671|   -5.537267|   -7.695149|    0.824072|    0.012027|
|         672|   -5.549853|   -7.693427|    0.824070|    0.012027|
|         673|   -5.562666|   -7.691958|    0.824068|    0.012028|
|         674|   -5.575655|   -7.690770|    0.824066|    0.012028|
|         675|   -5.588753|   -7.689882|    0.824064|    0.012028|
|         676|   -5.601874|   -7.689301|    0.824062|    0.012028|
|         677|   -5.614916|   -7.689025|    0.824061|    0.012028|
|         678|   -5.627764|   -7.689037|    0.824059|    0.012028|
|         679|   -5.640295|   -7.689310|    0.824057|    0.012028|
|         680|   -5.652389|   -7.689807|    0.824056|    0.012028|
|         681|   -5.663925|   -7.690478|    0.824055|    0.012028|
|         682|   -5.674796|   -7.691269|    0.824054|    0.012028|
|         683|   -5.684910|   -7.692116|    0.824053|    0.012029|
|         684|   -5.694194|   -7.692955|    0.824052|    0.012029|
|         685|   -5.702601|   -7.693720|    0.824051|    0.012029|
|         686|   -5.710107|   -7.694351|    0.824051|    0.012029|
|         687|   -5.716719|   -7.694793|    0.824051|    0.012029|
|         688|   -5.722467|   -7.695001|    0.824050|    0.012029|
|         689|   -5.727408|   -7.694943|    0.824051|    0.012029|
|         690|   -5.731618|   -7.694604|    0.824051|    0.012029|
|         691|   -5.735188|   -7.693981|    0.824051|    0.012029|
|         692|   -5.738219|   -7.693090|    0.824051|    0.012029|
|         693|   -5.740814|   -7.691961|    0.824052|    0.012029|
|         694|   -5.743079|   -7.690633|    0.824053|    0.012029|
|         695|   -5.745112|   -7.689160|    0.824054|    0.012029|
|         696|   -5.747004|   -7.687596|    0.824055|    0.012029|
|         697|   -5.748837|   -7.686003|    0.824056|    0.012029|
|         698|   -5.750682|   -7.684438|    0.824057|    0.012029|
|         699|   -5.752598|   -7.682955|    0.824058|    0.012030|
|         700|   -5.754636|   -7.681600|    0.824060|    0.012030|
|         701|   -5.756833|   -7.680413|    0.824061|    0.012025|
+-----------------------------------------------------------------------+
|Fixed CL Mode                           |Value                         |
+-----------------------------------------------------------------------+
|Current CL                              |0.824061                      |
|Target CL                               |0.824                         |
|Previous AOA                            |2.78955                       |
|Changed AoA by                          |-0.000298836                  |
+-----------------------------------------------------------------------+
+----------------------------------------------------------------+
|  Inner_Iter|    rms[Rho]|     rms[nu]|          CL|          CD|
+----------------------------------------------------------------+
|         702|   -3.717900|   -7.586687|    0.824063|    0.012025|
|         703|   -4.101377|   -7.627956|    0.824065|    0.012025|
|         704|   -4.342481|   -7.641190|    0.824066|    0.012025|
|         705|   -4.419902|   -7.648577|    0.824068|    0.012025|
|         706|   -4.473368|   -7.653952|    0.824070|    0.012025|
|         707|   -4.543058|   -7.658219|    0.824071|    0.012025|
|         708|   -4.629461|   -7.661667|    0.824073|    0.012025|
|         709|   -4.720388|   -7.664455|    0.824075|    0.012025|
|         710|   -4.799995|   -7.666667|    0.824077|    0.012025|
|         711|   -4.859867|   -7.668300|    0.824079|    0.012026|
|         712|   -4.900838|   -7.669360|    0.824080|    0.012026|
|         713|   -4.925808|   -7.669935|    0.824082|    0.012026|
|         714|   -4.937958|   -7.670153|    0.824084|    0.012026|
|         715|   -4.943061|   -7.670109|    0.824085|    0.012026|
|         716|   -4.948141|   -7.669826|    0.824087|    0.012026|
|         717|   -4.958111|   -7.669288|    0.824088|    0.012026|
|         718|   -4.974321|   -7.668492|    0.824090|    0.012026|
|         719|   -4.995116|   -7.667478|    0.824091|    0.012026|
|         720|   -5.017383|   -7.666307|    0.824093|    0.012026|
|         721|   -5.038449|   -7.665037|    0.824094|    0.012026|
|         722|   -5.057432|   -7.663705|    0.824095|    0.012026|
|         723|   -5.075176|   -7.662327|    0.824096|    0.012026|
|         724|   -5.093072|   -7.660910|    0.824097|    0.012026|
|         725|   -5.111910|   -7.659463|    0.824098|    0.012026|
|         726|   -5.131493|   -7.658004|    0.824098|    0.012026|
|         727|   -5.150886|   -7.656565|    0.824099|    0.012026|
|         728|   -5.168906|   -7.655180|    0.824100|    0.012026|
|         729|   -5.184526|   -7.653885|    0.824100|    0.012026|
|         730|   -5.197109|   -7.652714|    0.824101|    0.012026|
|         731|   -5.206531|   -7.651696|    0.824101|    0.012026|
|         732|   -5.213229|   -7.650855|    0.824101|    0.012026|
|         733|   -5.218128|   -7.650201|    0.824101|    0.012026|
|         734|   -5.222429|   -7.649741|    0.824101|    0.012026|
|         735|   -5.227314|   -7.649466|    0.824101|    0.012026|
|         736|   -5.233698|   -7.649360|    0.824101|    0.012026|
|         737|   -5.242092|   -7.649403|    0.824101|    0.012026|
|         738|   -5.252562|   -7.649568|    0.824100|    0.012026|
|         739|   -5.264748|   -7.649827|    0.824100|    0.012026|
|         740|   -5.277915|   -7.650152|    0.824100|    0.012026|
|         741|   -5.291061|   -7.650516|    0.824099|    0.012026|
|         742|   -5.303113|   -7.650897|    0.824099|    0.012026|
|         743|   -5.313192|   -7.651273|    0.824098|    0.012026|
|         744|   -5.320878|   -7.651633|    0.824097|    0.012026|
|         745|   -5.326348|   -7.651966|    0.824097|    0.012026|
|         746|   -5.330295|   -7.652269|    0.824096|    0.012026|
|         747|   -5.333683|   -7.652538|    0.824095|    0.012026|
|         748|   -5.337458|   -7.652773|    0.824094|    0.012026|
|         749|   -5.342343|   -7.652976|    0.824093|    0.012026|
|         750|   -5.348729|   -7.653148|    0.824092|    0.012026|
|         751|   -5.356673|   -7.653296|    0.824091|    0.012026|
|         752|   -5.365956|   -7.653422|    0.824090|    0.012026|
|         753|   -5.376171|   -7.653534|    0.824089|    0.012026|
|         754|   -5.386839|   -7.653638|    0.824088|    0.012026|
|         755|   -5.397511|   -7.653737|    0.824087|    0.012026|
|         756|   -5.407861|   -7.653838|    0.824085|    0.012026|
|         757|   -5.417737|   -7.653944|    0.824084|    0.012026|
|         758|   -5.427161|   -7.654063|    0.824083|    0.012026|
|         759|   -5.436294|   -7.654202|    0.824081|    0.012026|
|         760|   -5.445368|   -7.654373|    0.824080|    0.012026|
|         761|   -5.454627|   -7.654588|    0.824078|    0.012026|
|         762|   -5.464275|   -7.654864|    0.824076|    0.012026|
|         763|   -5.474452|   -7.655217|    0.824074|    0.012026|
|         764|   -5.485230|   -7.655667|    0.824073|    0.012026|
|         765|   -5.496627|   -7.656235|    0.824071|    0.012026|
|         766|   -5.508626|   -7.656944|    0.824069|    0.012026|
|         767|   -5.521196|   -7.657816|    0.824067|    0.012026|
|         768|   -5.534305|   -7.658874|    0.824065|    0.012026|
|         769|   -5.547936|   -7.660137|    0.824063|    0.012026|
|         770|   -5.562083|   -7.661622|    0.824061|    0.012026|
|         771|   -5.576749|   -7.663343|    0.824060|    0.012026|
|         772|   -5.591940|   -7.665306|    0.824058|    0.012026|
|         773|   -5.607654|   -7.667511|    0.824056|    0.012026|
|         774|   -5.623871|   -7.669949|    0.824054|    0.012026|
|         775|   -5.640554|   -7.672599|    0.824053|    0.012026|
|         776|   -5.657640|   -7.675433|    0.824051|    0.012026|
|         777|   -5.675042|   -7.678414|    0.824050|    0.012026|
|         778|   -5.692649|   -7.681494|    0.824049|    0.012026|
|         779|   -5.710329|   -7.684618|    0.824047|    0.012026|
|         780|   -5.727930|   -7.687725|    0.824046|    0.012026|
|         781|   -5.745285|   -7.690752|    0.824046|    0.012026|
|         782|   -5.762213|   -7.693633|    0.824045|    0.012026|
|         783|   -5.778529|   -7.696305|    0.824044|    0.012026|
|         784|   -5.794047|   -7.698713|    0.824044|    0.012026|
|         785|   -5.808588|   -7.700808|    0.824044|    0.012026|
|         786|   -5.821994|   -7.702556|    0.824044|    0.012026|
|         787|   -5.834135|   -7.703938|    0.824044|    0.012026|
|         788|   -5.844918|   -7.704950|    0.824044|    0.012026|
|         789|   -5.854297|   -7.705606|    0.824045|    0.012026|
|         790|   -5.862270|   -7.705935|    0.824046|    0.012026|
|         791|   -5.868886|   -7.705983|    0.824046|    0.012026|
|         792|   -5.874232|   -7.705807|    0.824047|    0.012027|
|         793|   -5.878427|   -7.705472|    0.824048|    0.012027|
|         794|   -5.881614|   -7.705050|    0.824050|    0.012027|
|         795|   -5.883947|   -7.704615|    0.824051|    0.012027|
|         796|   -5.885582|   -7.704238|    0.824052|    0.012027|
|         797|   -5.886670|   -7.703985|    0.824054|    0.012027|
|         798|   -5.887352|   -7.703917|    0.824055|    0.012027|
|         799|   -5.887754|   -7.704083|    0.824057|    0.012027|
|         800|   -5.887987|   -7.704522|    0.824059|    0.012027|
|         801|   -5.888148|   -7.705260|    0.824061|    0.012023|
+-----------------------------------------------------------------------+
|Fixed CL Mode                           |Value                         |
+-----------------------------------------------------------------------+
|Current CL                              |0.824061                      |
|Target CL                               |0.824                         |
|Previous AOA                            |2.78925                       |
|Changed AoA by                          |-0.000294678                  |
+-----------------------------------------------------------------------+
+----------------------------------------------------------------+
|  Inner_Iter|    rms[Rho]|     rms[nu]|          CL|          CD|
+----------------------------------------------------------------+
|         802|   -3.724003|   -7.605949|    0.824063|    0.012023|
|         803|   -4.107739|   -7.651807|    0.824065|    0.012023|
|         804|   -4.349498|   -7.668092|    0.824067|    0.012023|
|         805|   -4.427159|   -7.678238|    0.824069|    0.012023|
|         806|   -4.480634|   -7.686333|    0.824071|    0.012023|
|         807|   -4.550350|   -7.693327|    0.824073|    0.012023|
|         808|   -4.636830|   -7.699499|    0.824075|    0.012023|
|         809|   -4.727827|   -7.704996|    0.824077|    0.012023|
|         810|   -4.807387|   -7.709882|    0.824079|    0.012023|
|         811|   -4.867047|   -7.714130|    0.824080|    0.012023|
|         812|   -4.907697|   -7.717726|    0.824082|    0.012024|
|         813|   -4.932335|   -7.720760|    0.824084|    0.012024|
|         814|   -4.944222|   -7.723383|    0.824086|    0.012024|
|         815|   -4.949171|   -7.725710|    0.824088|    0.012024|
|         816|   -4.954198|   -7.727773|    0.824089|    0.012024|
|         817|   -4.964196|   -7.729549|    0.824091|    0.012024|
|         818|   -4.980496|   -7.731034|    0.824092|    0.012024|
|         819|   -5.001432|   -7.732269|    0.824094|    0.012024|
|         820|   -5.023878|   -7.733324|    0.824095|    0.012024|
|         821|   -5.045146|   -7.734267|    0.824096|    0.012024|
|         822|   -5.064338|   -7.735131|    0.824097|    0.012024|
|         823|   -5.082297|   -7.735930|    0.824098|    0.012024|
|         824|   -5.100420|   -7.736659|    0.824099|    0.012024|
|         825|   -5.119513|   -7.737317|    0.824100|    0.012024|
|         826|   -5.139388|   -7.737921|    0.824100|    0.012024|
|         827|   -5.159113|   -7.738501|    0.824101|    0.012024|
|         828|   -5.177494|   -7.739096|    0.824101|    0.012024|
|         829|   -5.193484|   -7.739747|    0.824101|    0.012024|
|         830|   -5.206421|   -7.740496|    0.824102|    0.012024|
|         831|   -5.216161|   -7.741378|    0.824102|    0.012024|
|         832|   -5.223135|   -7.742420|    0.824102|    0.012024|
|         833|   -5.228278|   -7.743638|    0.824102|    0.012024|
|         834|   -5.232814|   -7.745038|    0.824101|    0.012024|
|         835|   -5.237954|   -7.746607|    0.824101|    0.012024|
|         836|   -5.244645|   -7.748323|    0.824101|    0.012024|
|         837|   -5.253421|   -7.750158|    0.824100|    0.012024|
|         838|   -5.264368|   -7.752074|    0.824100|    0.012024|
|         839|   -5.277130|   -7.754035|    0.824099|    0.012024|
|         840|   -5.290966|   -7.756002|    0.824099|    0.012024|
|         841|   -5.304849|   -7.757941|    0.824098|    0.012024|
|         842|   -5.317662|   -7.759824|    0.824097|    0.012024|
|         843|   -5.328475|   -7.761626|    0.824096|    0.012024|
|         844|   -5.336828|   -7.763333|    0.824095|    0.012024|
|         845|   -5.342879|   -7.764937|    0.824094|    0.012024|
|         846|   -5.347338|   -7.766438|    0.824093|    0.012024|
|         847|   -5.351206|   -7.767835|    0.824092|    0.012024|
|         848|   -5.355479|   -7.769131|    0.824091|    0.012024|
|         849|   -5.360924|   -7.770330|    0.824090|    0.012024|
|         850|   -5.367963|   -7.771436|    0.824088|    0.012024|
|         851|   -5.376670|   -7.772453|    0.824087|    0.012024|
|         852|   -5.386826|   -7.773384|    0.824086|    0.012024|
|         853|   -5.398009|   -7.774236|    0.824084|    0.012023|
|         854|   -5.409710|   -7.775010|    0.824082|    0.012023|
|         855|   -5.421447|   -7.775704|    0.824081|    0.012023|
|         856|   -5.432861|   -7.776317|    0.824079|    0.012023|
|         857|   -5.443775|   -7.776847|    0.824077|    0.012023|
|         858|   -5.454201|   -7.777294|    0.824076|    0.012023|
|         859|   -5.464304|   -7.777660|    0.824074|    0.012023|
|         860|   -5.474331|   -7.777955|    0.824072|    0.012023|
|         861|   -5.484546|   -7.778191|    0.824070|    0.012023|
|         862|   -5.495170|   -7.778387|    0.824068|    0.012023|
|         863|   -5.506360|   -7.778566|    0.824066|    0.012023|
|         864|   -5.518194|   -7.778755|    0.824064|    0.012023|
|         865|   -5.530691|   -7.778988|    0.824061|    0.012023|
|         866|   -5.543829|   -7.779303|    0.824059|    0.012023|
|         867|   -5.557568|   -7.779738|    0.824057|    0.012023|
|         868|   -5.571868|   -7.780333|    0.824055|    0.012023|
|         869|   -5.586701|   -7.781127|    0.824053|    0.012023|
|         870|   -5.602054|   -7.782158|    0.824050|    0.012023|
|         871|   -5.617923|   -7.783456|    0.824048|    0.012023|
|         872|   -5.634305|   -7.785046|    0.824046|    0.012023|
|         873|   -5.651188|   -7.786939|    0.824044|    0.012023|
|         874|   -5.668540|   -7.789138|    0.824042|    0.012023|
|         875|   -5.686305|   -7.791629|    0.824040|    0.012023|
|         876|   -5.704396|   -7.794387|    0.824038|    0.012023|
|         877|   -5.722696|   -7.797372|    0.824037|    0.012023|
|         878|   -5.741056|   -7.800529|    0.824035|    0.012023|
|         879|   -5.759301|   -7.803791|    0.824034|    0.012024|
|         880|   -5.777235|   -7.807082|    0.824033|    0.012024|
|         881|   -5.794641|   -7.810317|    0.824031|    0.012024|
|         882|   -5.811297|   -7.813406|    0.824030|    0.012024|
|         883|   -5.826982|   -7.816262|    0.824030|    0.012024|
|         884|   -5.841485|   -7.818803|    0.824029|    0.012024|
|         885|   -5.854624|   -7.820959|    0.824029|    0.012024|
|         886|   -5.866259|   -7.822676|    0.824028|    0.012024|
|         887|   -5.876298|   -7.823921|    0.824028|    0.012024|
|         888|   -5.884712|   -7.824685|    0.824028|    0.012024|
|         889|   -5.891533|   -7.824982|    0.824028|    0.012024|
|         890|   -5.896852|   -7.824851|    0.824029|    0.012025|
|         891|   -5.900806|   -7.824354|    0.824029|    0.012025|
|         892|   -5.903570|   -7.823569|    0.824030|    0.012025|
|         893|   -5.905336|   -7.822589|    0.824030|    0.012025|
|         894|   -5.906303|   -7.821513|    0.824031|    0.012025|
|         895|   -5.906665|   -7.820444|    0.824032|    0.012025|
|         896|   -5.906601|   -7.819479|    0.824033|    0.012025|
|         897|   -5.906269|   -7.818711|    0.824035|    0.012025|
|         898|   -5.905807|   -7.818221|    0.824036|    0.012026|
|         899|   -5.905330|   -7.818073|    0.824037|    0.012026|
|         900|   -5.904929|   -7.818319|    0.824039|    0.012026|
|         901|   -5.904678|   -7.818990|    0.824040|    0.012023|
+-----------------------------------------------------------------------+
|Fixed CL Mode                           |Value                         |
+-----------------------------------------------------------------------+
|Current CL                              |0.82404                       |
|Target CL                               |0.824                         |
|Previous AOA                            |2.78896                       |
[...]
|        5298|   -6.037984|   -7.954797|    0.824237|    0.012029|
|        5299|   -6.044644|   -7.958655|    0.824237|    0.012029|
|        5300|   -6.050923|   -7.962574|    0.824238|    0.012029|
|        5301|   -6.056783|   -7.966569|    0.824238|    0.012029|
|        5302|   -6.062197|   -7.970653|    0.824238|    0.012029|
|        5303|   -6.067147|   -7.974837|    0.824238|    0.012029|
|        5304|   -6.071629|   -7.979126|    0.824238|    0.012029|
|        5305|   -6.075648|   -7.983526|    0.824238|    0.012029|
|        5306|   -6.079223|   -7.988038|    0.824238|    0.012029|
|        5307|   -6.082382|   -7.992664|    0.824238|    0.012029|
|        5308|   -6.085163|   -7.997402|    0.824238|    0.012029|
|        5309|   -6.087608|   -8.002251|    0.824239|    0.012029|
|        5310|   -6.089769|   -8.007210|    0.824239|    0.012029|
|        5311|   -6.091699|   -8.012276|    0.824239|    0.012029|
|        5312|   -6.093454|   -8.017450|    0.824239|    0.012029|
|        5313|   -6.095089|   -8.022729|    0.824239|    0.012029|
|        5314|   -6.096659|   -8.028114|    0.824239|    0.012029|
|        5315|   -6.098216|   -8.033607|    0.824239|    0.012029|
|        5316|   -6.099809|   -8.039207|    0.824239|    0.012029|
|        5317|   -6.101480|   -8.044917|    0.824239|    0.012029|
|        5318|   -6.103268|   -8.050740|    0.824240|    0.012029|
|        5319|   -6.105205|   -8.056677|    0.824240|    0.012029|
|        5320|   -6.107317|   -8.062730|    0.824240|    0.012029|
|        5321|   -6.109624|   -8.068901|    0.824240|    0.012029|
|        5322|   -6.112140|   -8.075191|    0.824240|    0.012029|
|        5323|   -6.114869|   -8.081598|    0.824240|    0.012029|
|        5324|   -6.117813|   -8.088121|    0.824240|    0.012030|
|        5325|   -6.120965|   -8.094755|    0.824241|    0.012030|
|        5326|   -6.124312|   -8.101496|    0.824241|    0.012030|
|        5327|   -6.127834|   -8.108337|    0.824241|    0.012030|
|        5328|   -6.131508|   -8.115269|    0.824241|    0.012030|
|        5329|   -6.135304|   -8.122281|    0.824241|    0.012030|
|        5330|   -6.139190|   -8.129362|    0.824241|    0.012030|
|        5331|   -6.143127|   -8.136496|    0.824242|    0.012030|
|        5332|   -6.147077|   -8.143667|    0.824242|    0.012030|
|        5333|   -6.151000|   -8.150864|    0.824242|    0.012030|
|        5334|   -6.154854|   -8.158074|    0.824242|    0.012030|
|        5335|   -6.158600|   -8.165286|    0.824242|    0.012030|
|        5336|   -6.162201|   -8.172491|    0.824242|    0.012031|
|        5337|   -6.165623|   -8.179677|    0.824242|    0.012031|
|        5338|   -6.168838|   -8.186838|    0.824243|    0.012031|
|        5339|   -6.171825|   -8.193966|    0.824243|    0.012031|
|        5340|   -6.174570|   -8.201056|    0.824243|    0.012031|
|        5341|   -6.177064|   -8.208104|    0.824243|    0.012031|
|        5342|   -6.179311|   -8.215110|    0.824243|    0.012031|
|        5343|   -6.181318|   -8.222074|    0.824243|    0.012031|
|        5344|   -6.183104|   -8.228998|    0.824243|    0.012031|
|        5345|   -6.184692|   -8.235887|    0.824243|    0.012031|
|        5346|   -6.186113|   -8.242744|    0.824243|    0.012031|
|        5347|   -6.187401|   -8.249577|    0.824244|    0.012031|
|        5348|   -6.188596|   -8.256394|    0.824244|    0.012031|
|        5349|   -6.189739|   -8.263204|    0.824244|    0.012031|
|        5350|   -6.190873|   -8.270016|    0.824244|    0.012031|
|        5351|   -6.192041|   -8.276840|    0.824244|    0.012032|
|        5352|   -6.193286|   -8.283686|    0.824244|    0.012032|
|        5353|   -6.194647|   -8.290564|    0.824244|    0.012032|
|        5354|   -6.196163|   -8.297483|    0.824244|    0.012032|
|        5355|   -6.197867|   -8.304454|    0.824244|    0.012032|
|        5356|   -6.199790|   -8.311483|    0.824244|    0.012032|
|        5357|   -6.201960|   -8.318578|    0.824244|    0.012032|
|        5358|   -6.204399|   -8.325745|    0.824244|    0.012032|
|        5359|   -6.207123|   -8.332989|    0.824244|    0.012032|
|        5360|   -6.210147|   -8.340313|    0.824244|    0.012032|
|        5361|   -6.213478|   -8.347720|    0.824244|    0.012032|
|        5362|   -6.217119|   -8.355209|    0.824244|    0.012032|
|        5363|   -6.221070|   -8.362781|    0.824244|    0.012032|
|        5364|   -6.225322|   -8.370432|    0.824244|    0.012032|
|        5365|   -6.229865|   -8.378159|    0.824244|    0.012032|
|        5366|   -6.234682|   -8.385955|    0.824244|    0.012032|
|        5367|   -6.239752|   -8.393815|    0.824244|    0.012032|
|        5368|   -6.245049|   -8.401731|    0.824244|    0.012032|
|        5369|   -6.250543|   -8.409693|    0.824244|    0.012032|
|        5370|   -6.256198|   -8.417690|    0.824244|    0.012031|
|        5371|   -6.261976|   -8.425713|    0.824244|    0.012031|
|        5372|   -6.267834|   -8.433749|    0.824244|    0.012031|
|        5373|   -6.273727|   -8.441786|    0.824244|    0.012031|
|        5374|   -6.279610|   -8.449813|    0.824244|    0.012031|
|        5375|   -6.285433|   -8.457816|    0.824244|    0.012031|
|        5376|   -6.291148|   -8.465782|    0.824244|    0.012031|
|        5377|   -6.296708|   -8.473700|    0.824244|    0.012031|
|        5378|   -6.302066|   -8.481558|    0.824244|    0.012031|
|        5379|   -6.307180|   -8.489345|    0.824244|    0.012031|
|        5380|   -6.312012|   -8.497049|    0.824244|    0.012031|
|        5381|   -6.316527|   -8.504661|    0.824244|    0.012031|
|        5382|   -6.320698|   -8.512169|    0.824244|    0.012031|
|        5383|   -6.324506|   -8.519565|    0.824244|    0.012031|
|        5384|   -6.327936|   -8.526835|    0.824244|    0.012030|
|        5385|   -6.330982|   -8.533970|    0.824244|    0.012030|
|        5386|   -6.333646|   -8.540956|    0.824244|    0.012030|
|        5387|   -6.335934|   -8.547779|    0.824244|    0.012030|
|        5388|   -6.337861|   -8.554424|    0.824244|    0.012030|
|        5389|   -6.339445|   -8.560873|    0.824244|    0.012030|
|        5390|   -6.340708|   -8.567106|    0.824245|    0.012030|
|        5391|   -6.341676|   -8.573101|    0.824245|    0.012030|
|        5392|   -6.342375|   -8.578833|    0.824245|    0.012030|
|        5393|   -6.342833|   -8.584275|    0.824245|    0.012030|
|        5394|   -6.343078|   -8.589398|    0.824245|    0.012030|
|        5395|   -6.343137|   -8.594171|    0.824245|    0.012029|
|        5396|   -6.343034|   -8.598565|    0.824245|    0.012029|
|        5397|   -6.342792|   -8.602547|    0.824245|    0.012029|
|        5398|   -6.342433|   -8.606090|    0.824246|    0.012029|
|        5399|   -6.341975|   -8.609166|    0.824246|    0.012029|
|        5400|   -6.341432|   -8.611756|    0.824246|    0.012029|
|        5401|   -6.340819|   -8.613845|    0.824246|    0.012029|
|        5402|   -6.340147|   -8.615428|    0.824246|    0.012029|
|        5403|   -6.339424|   -8.616504|    0.824247|    0.012029|
|        5404|   -6.338657|   -8.617084|    0.824247|    0.012029|
|        5405|   -6.337854|   -8.617185|    0.824247|    0.012028|
|        5406|   -6.337017|   -8.616834|    0.824247|    0.012028|
|        5407|   -6.336150|   -8.616062|    0.824247|    0.012028|
|        5408|   -6.335257|   -8.614909|    0.824248|    0.012028|
|        5409|   -6.334340|   -8.613419|    0.824248|    0.012028|
|        5410|   -6.333402|   -8.611642|    0.824248|    0.012028|
|        5411|   -6.332445|   -8.609628|    0.824248|    0.012028|
|        5412|   -6.331471|   -8.607427|    0.824248|    0.012028|
|        5413|   -6.330485|   -8.605091|    0.824249|    0.012028|
|        5414|   -6.329488|   -8.602667|    0.824249|    0.012028|
|        5415|   -6.328485|   -8.600202|    0.824249|    0.012028|
|        5416|   -6.327481|   -8.597737|    0.824249|    0.012028|
|        5417|   -6.326480|   -8.595309|    0.824249|    0.012028|
|        5418|   -6.325488|   -8.592952|    0.824250|    0.012028|
|        5419|   -6.324512|   -8.590692|    0.824250|    0.012028|
|        5420|   -6.323559|   -8.588552|    0.824250|    0.012028|
|        5421|   -6.322636|   -8.586550|    0.824250|    0.012027|
|        5422|   -6.321753|   -8.584700|    0.824250|    0.012027|
|        5423|   -6.320918|   -8.583009|    0.824250|    0.012027|
|        5424|   -6.320141|   -8.581485|    0.824251|    0.012027|
|        5425|   -6.319434|   -8.580127|    0.824251|    0.012027|
|        5426|   -6.318808|   -8.578936|    0.824251|    0.012027|
|        5427|   -6.318275|   -8.577907|    0.824251|    0.012027|
|        5428|   -6.317847|   -8.577035|    0.824251|    0.012027|
|        5429|   -6.317539|   -8.576315|    0.824251|    0.012027|
|        5430|   -6.317363|   -8.575739|    0.824251|    0.012027|
|        5431|   -6.317334|   -8.575298|    0.824252|    0.012027|
|        5432|   -6.317465|   -8.574986|    0.824252|    0.012027|
|        5433|   -6.317772|   -8.574796|    0.824252|    0.012027|
|        5434|   -6.318267|   -8.574720|    0.824252|    0.012027|
|        5435|   -6.318964|   -8.574753|    0.824252|    0.012027|
|        5436|   -6.319877|   -8.574892|    0.824252|    0.012028|
|        5437|   -6.321016|   -8.575131|    0.824252|    0.012028|
|        5438|   -6.322394|   -8.575469|    0.824252|    0.012028|
|        5439|   -6.324020|   -8.575904|    0.824252|    0.012028|
|        5440|   -6.325902|   -8.576437|    0.824252|    0.012028|
|        5441|   -6.328047|   -8.577066|    0.824252|    0.012028|
|        5442|   -6.330459|   -8.577794|    0.824252|    0.012028|
|        5443|   -6.333140|   -8.578622|    0.824252|    0.012028|
|        5444|   -6.336092|   -8.579552|    0.824253|    0.012028|
|        5445|   -6.339310|   -8.580585|    0.824253|    0.012028|
|        5446|   -6.342789|   -8.581723|    0.824253|    0.012028|
|        5447|   -6.346521|   -8.582969|    0.824253|    0.012028|
|        5448|   -6.350493|   -8.584322|    0.824253|    0.012028|
|        5449|   -6.354691|   -8.585783|    0.824253|    0.012028|
|        5450|   -6.359095|   -8.587351|    0.824253|    0.012028|
|        5451|   -6.363684|   -8.589027|    0.824253|    0.012028|
|        5452|   -6.368431|   -8.590809|    0.824253|    0.012029|
|        5453|   -6.373307|   -8.592693|    0.824253|    0.012029|
|        5454|   -6.378279|   -8.594678|    0.824253|    0.012029|
|        5455|   -6.383311|   -8.596759|    0.824253|    0.012029|
|        5456|   -6.388364|   -8.598933|    0.824253|    0.012029|
|        5457|   -6.393397|   -8.601193|    0.824253|    0.012029|
|        5458|   -6.398366|   -8.603535|    0.824252|    0.012029|
|        5459|   -6.403228|   -8.605953|    0.824252|    0.012029|
|        5460|   -6.407936|   -8.608440|    0.824252|    0.012029|
|        5461|   -6.412448|   -8.610991|    0.824252|    0.012029|
|        5462|   -6.416720|   -8.613597|    0.824252|    0.012029|
|        5463|   -6.420712|   -8.616252|    0.824252|    0.012029|
|        5464|   -6.424387|   -8.618948|    0.824252|    0.012029|
|        5465|   -6.427716|   -8.621679|    0.824252|    0.012030|
|        5466|   -6.430670|   -8.624437|    0.824252|    0.012030|
|        5467|   -6.433231|   -8.627213|    0.824252|    0.012030|
|        5468|   -6.435386|   -8.630001|    0.824252|    0.012030|
|        5469|   -6.437131|   -8.632792|    0.824252|    0.012030|
|        5470|   -6.438466|   -8.635577|    0.824252|    0.012030|
|        5471|   -6.439402|   -8.638349|    0.824251|    0.012030|
|        5472|   -6.439955|   -8.641098|    0.824251|    0.012030|
|        5473|   -6.440148|   -8.643816|    0.824251|    0.012030|
|        5474|   -6.440008|   -8.646494|    0.824251|    0.012030|
|        5475|   -6.439568|   -8.649121|    0.824251|    0.012030|
|        5476|   -6.438863|   -8.651690|    0.824251|    0.012030|
|        5477|   -6.437932|   -8.654189|    0.824251|    0.012030|
|        5478|   -6.436814|   -8.656609|    0.824251|    0.012030|
|        5479|   -6.435550|   -8.658941|    0.824251|    0.012030|
|        5480|   -6.434180|   -8.661175|    0.824250|    0.012030|
|        5481|   -6.432742|   -8.663301|    0.824250|    0.012030|
|        5482|   -6.431274|   -8.665310|    0.824250|    0.012030|
|        5483|   -6.429812|   -8.667194|    0.824250|    0.012030|
|        5484|   -6.428388|   -8.668945|    0.824250|    0.012030|
|        5485|   -6.427034|   -8.670557|    0.824250|    0.012030|
|        5486|   -6.425777|   -8.672022|    0.824250|    0.012030|
|        5487|   -6.424642|   -8.673337|    0.824250|    0.012030|
|        5488|   -6.423652|   -8.674498|    0.824250|    0.012030|
|        5489|   -6.422826|   -8.675502|    0.824250|    0.012030|
|        5490|   -6.422180|   -8.676349|    0.824249|    0.012030|
|        5491|   -6.421730|   -8.677038|    0.824249|    0.012030|
|        5492|   -6.421486|   -8.677572|    0.824249|    0.012030|
|        5493|   -6.421459|   -8.677953|    0.824249|    0.012030|
|        5494|   -6.421656|   -8.678186|    0.824249|    0.012030|
|        5495|   -6.422082|   -8.678276|    0.824249|    0.012030|
|        5496|   -6.422742|   -8.678229|    0.824249|    0.012030|
|        5497|   -6.423636|   -8.678051|    0.824249|    0.012030|
|        5498|   -6.424765|   -8.677750|    0.824249|    0.012030|
|        5499|   -6.426129|   -8.677334|    0.824249|    0.012016|
+-----------------------------------------------------------------------+
|Fixed CL Mode (Finite Difference)       |Value                         |
+-----------------------------------------------------------------------+
|Delta CL / Delta AoA                    |0.248814                      |
|Delta CD / Delta CL                     |0.0182642                     |
|Delta CMz / Delta CL                    |0.00857829                    |
+-----------------------------------------------------------------------+
Writing Flow Meta-Data file: flow.meta

----------------------------- Solver Exit -------------------------------

Maximum number of iterations reached (ITER = 5500) before convergence.
+-----------------------------------------------------------------------+
|      Convergence Field     |     Value    |   Criterion  |  Converged |
+-----------------------------------------------------------------------+
|                    rms[Rho]|      -6.42613|         < -12|          No|
+-----------------------------------------------------------------------+
-------------------------------------------------------------------------

--------------------------- Finalizing Solver ---------------------------
Deleted CNumerics container.
Deleted CIntegration container.
Deleted CSolver container.
Deleted CIteration container.
Deleted CInterface container.
Deleted CGeometry container.
Deleted CFreeFormDefBox class.
Deleted CSurfaceMovement class.
Deleted CVolumetricMovement class.
Deleted CConfig container.
Deleted nInst container.
Deleted COutput class.
-------------------------------------------------------------------------

------------------------- Exit Success (SU2_CFD) ------------------------


-------------------------------------------------------------------------
|    ___ _   _ ___                                                      |
|   / __| | | |_  )   Release 8.0.0 "Harrier"                           |
|   \__ \ |_| |/ /                                                      |
|   |___/\___//___|   Suite (Solution Exporting Code)                   |
|                                                                       |
-------------------------------------------------------------------------
| SU2 Project Website: https://su2code.github.io                        |
|                                                                       |
| The SU2 Project is maintained by the SU2 Foundation                   |
| (http://su2foundation.org)                                            |
-------------------------------------------------------------------------
| Copyright 2012-2023, SU2 Contributors                                 |
|                                                                       |
| SU2 is free software; you can redistribute it and/or                  |
| modify it under the terms of the GNU Lesser General Public            |
| License as published by the Free Software Foundation; either          |
| version 2.1 of the License, or (at your option) any later version.    |
|                                                                       |
| SU2 is distributed in the hope that it will be useful,                |
| but WITHOUT ANY WARRANTY; without even the implied warranty of        |
| MERCHANTABILITY or FITNESS FOR A PARTICULAR PURPOSE. See the GNU      |
| Lesser General Public License for more details.                       |
|                                                                       |
| You should have received a copy of the GNU Lesser General Public      |
| License along with SU2. If not, see <http://www.gnu.org/licenses/>.   |
-------------------------------------------------------------------------

----------------- Physical Case Definition ( Zone 0 ) -------------------
Input mesh file name: mesh_RAE2822_turb_deform.su2

-------------------- Output Information ( Zone 0 ) ----------------------
The tabular file format is CSV (.csv).
Flow variables file name: flow.

------------- Config File Boundary Information ( Zone 0 ) ---------------
+-----------------------------------------------------------------------+
|                        Marker Type|                        Marker Name|
+-----------------------------------------------------------------------+
|                          Far-field|                           FARFIELD|
+-----------------------------------------------------------------------+
|                     Heat flux wall|                            AIRFOIL|
+-----------------------------------------------------------------------+
Two dimensional problem.
13937 grid points before partitioning.
22842 volume elements before partitioning.
2 surface markers.
192 boundary elements in index 0 (Marker = AIRFOIL).
40 boundary elements in index 1 (Marker = FARFIELD).
Executing the partitioning functions.
Building the graph adjacency structure.
Calling ParMETIS... graph partitioning complete (831 edge cuts).
Distributing ParMETIS coloring.
Rebalancing vertices.
Rebalancing volume element connectivity.
Rebalancing markers and surface elements.
14875 vertices including ghost points. 
23674 interior elements including halo cells. 
18780 triangles.
4894 quadrilaterals.
Establishing MPI communication patterns.
Identify vertices.
Storing a mapping from global to local point index.

------------------------- Solution Postprocessing -----------------------
Reading and storing the solution from restart_flow.
Volume output fields: COORDINATES, SOLUTION
  Info: Ignoring the following screen output fields:
  RMS_DENSITY, RMS_NU_TILDE, LIFT, DRAG
Screen output fields: INNER_ITER
  Info: Ignoring the following history output groups:
  RMS_RES, AERO_COEFF
History output group(s): ITER
Warning: No (valid) fields chosen for convergence monitoring. Convergence monitoring inactive.
Warning: No (valid) fields chosen for time convergence monitoring. Time convergence monitoring inactive.
|Paraview                           |flow.vtu                           |
|Paraview surface                   |surface_flow.vtu                   |
|CSV file                           |surface_flow.csv                   |

------------------------- Finalize Solver -------------------------
Deleted CGeometry container.
Deleted CSolver class.
Deleted CConfig container.
Deleted COutput class.

Completed in 0.019068 seconds on 6 cores.

------------------------- Exit Success (SU2_SOL) ------------------------

