
-------------------------------------------------------------------------
|    ___ _   _ ___                                                      |
|   / __| | | |_  )   Release 8.0.0 "Harrier"                           |
|   \__ \ |_| |/ /                                                      |
|   |___/\___//___|   Suite (Computational Fluid Dynamics Code)         |
|                                                                       |
-------------------------------------------------------------------------
| SU2 Project Website: https://su2code.github.io                        |
|                                                                       |
| The SU2 Project is maintained by the SU2 Foundation                   |
| (http://su2foundation.org)                                            |
-------------------------------------------------------------------------
| Copyright 2012-2023, SU2 Contributors                                 |
|                                                                       |
| SU2 is free software; you can redistribute it and/or                  |
| modify it under the terms of the GNU Lesser General Public            |
| License as published by the Free Software Foundation; either          |
| version 2.1 of the License, or (at your option) any later version.    |
|                                                                       |
| SU2 is distributed in the hope that it will be useful,                |
| but WITHOUT ANY WARRANTY; without even the implied warranty of        |
| MERCHANTABILITY or FITNESS FOR A PARTICULAR PURPOSE. See the GNU      |
| Lesser General Public License for more details.                       |
|                                                                       |
| You should have received a copy of the GNU Lesser General Public      |
| License along with SU2. If not, see <http://www.gnu.org/licenses/>.   |
-------------------------------------------------------------------------

Parsing config file for zone 0

----------------- Physical Case Definition ( Zone 0 ) -------------------
Compressible RANS equations.
Turbulence model: Spalart-Allmaras-noft2
Hybrid RANS/LES: No Hybrid RANS/LES
Mach number: 0.734.
Angle of attack (AoA): 2.31 deg, and angle of sideslip (AoS): 0 deg.
Reynolds number: 6.5e+06. Reference length 1.
Fixed CL mode, target value: 0.824.
Reading and writing binary SU2 native restart files.
Read flow solution from: solution_flow.dat.
Dimensional simulation.
The reference area is 1 m^2.
The semi-span will be computed using the max y(3D) value.
The reference length is 1 m.
Reference origin for moment evaluation is (0.25, 0, 0).
Surface(s) where the force coefficients are evaluated: AIRFOIL.

Surface(s) plotted in the output file: AIRFOIL.
Surface(s) affected by the design variables: AIRFOIL.
Input mesh file name: mesh_RAE2822_turb_deform.su2

--------------- Space Numerical Integration ( Zone 0 ) ------------------
Jameson-Schmidt-Turkel scheme (2nd order in space) for the flow inviscid terms.
JST viscous coefficients (2nd & 4th): 0.5, 0.02.
The method includes a grid stretching correction (p = 0.3).
Scalar upwind solver for the turbulence model.
First order integration in space.
Average of gradients with correction (viscous flow terms).
Average of gradients with correction (viscous turbulence terms).
Gradient for viscous and source terms: inverse-distance weighted Least-Squares.

--------------- Time Numerical Integration  ( Zone 0 ) ------------------
Local time stepping (steady state simulation).
Euler implicit method for the flow equations.
FGMRES is used for solving the linear system.
Using a ILU(0) preconditioning.
Convergence criteria of the linear solver: 1e-06.
Max number of linear iterations: 10.
No CFL adaptation.
Courant-Friedrichs-Lewy number:       10
Euler implicit time integration for the turbulence model.

------------------ Convergence Criteria  ( Zone 0 ) ---------------------
Maximum number of solver subiterations: 5500.
Begin convergence monitoring at iteration 10.
Residual minimum value: 1e-12.
Cauchy series min. value: 1e-06.
Number of Cauchy elements: 100.
Begin windowed time average at iteration 0.

-------------------- Output Information ( Zone 0 ) ----------------------
File writing frequency: 
+------------------------------------+
|                     File| Frequency|
+------------------------------------+
|                  RESTART|     10000|
|                 PARAVIEW|     10000|
|         SURFACE_PARAVIEW|     10000|
|              SURFACE_CSV|     10000|
+------------------------------------+
Writing the convergence history file every 1 inner iterations.
Writing the screen convergence history every 1 inner iterations.
The tabular file format is CSV (.csv).
Convergence history file name: history_direct.
Forces breakdown file name: forces_breakdown.dat.
Surface file name: surface_flow.
Volume file name: flow.
Restart file name: restart_flow.dat.

------------- Config File Boundary Information ( Zone 0 ) ---------------
+-----------------------------------------------------------------------+
|                        Marker Type|                        Marker Name|
+-----------------------------------------------------------------------+
|                          Far-field|                           FARFIELD|
+-----------------------------------------------------------------------+
|                     Heat flux wall|                            AIRFOIL|
+-----------------------------------------------------------------------+

-------------------- Output Preprocessing ( Zone 0 ) --------------------

WARNING: SURFACE_PRESSURE_DROP can only be computed for at least 2 surfaces (outlet, inlet, ...)

Screen output fields: INNER_ITER, RMS_DENSITY, RMS_NU_TILDE, LIFT, DRAG
History output group(s): ITER, RMS_RES, AERO_COEFF
Convergence field(s): RMS_DENSITY
Warning: No (valid) fields chosen for time convergence monitoring. Time convergence monitoring inactive.
Volume output fields: COORDINATES, SOLUTION, PRIMITIVE

------------------- Geometry Preprocessing ( Zone 0 ) -------------------
Two dimensional problem.
13937 grid points before partitioning.
22842 volume elements before partitioning.
2 surface markers.
192 boundary elements in index 0 (Marker = AIRFOIL).
40 boundary elements in index 1 (Marker = FARFIELD).
Executing the partitioning functions.
Building the graph adjacency structure.
Calling ParMETIS... graph partitioning complete (831 edge cuts).
Distributing ParMETIS coloring.
Rebalancing vertices.
Rebalancing volume element connectivity.
Rebalancing markers and surface elements.
14875 vertices including ghost points. 
23674 interior elements including halo cells. 
18780 triangles.
4894 quadrilaterals.
Establishing MPI communication patterns.
Setting point connectivity.
Renumbering points (Reverse Cuthill McKee Ordering).
Recomputing point connectivity.
Setting element connectivity.
Checking the numerical grid orientation.
All volume elements are correctly orientend.
All surface elements are correctly orientend.
Identifying edges and vertices.
Setting the control volume structure.
Area of the computational grid: 32209.9.
Searching for the closest normal neighbors to the surfaces.
Storing a mapping from global to local point index.
Compute the surface curvature.
Max K: 184.66. Mean K: 7.98946. Standard deviation K: 24.952.
Checking for periodicity.
Computing mesh quality statistics for the dual control volumes.
+--------------------------------------------------------------+
|           Mesh Quality Metric|        Minimum|        Maximum|
+--------------------------------------------------------------+
|    Orthogonality Angle (deg.)|        74.9071|        89.9995|
|     CV Face Area Aspect Ratio|        1.00369|        3358.34|
|           CV Sub-Volume Ratio|        1.00055|        1216.66|
+--------------------------------------------------------------+
Finding max control volume width.
Communicating number of neighbors.
Wetted area = 2.02166 m.
Area projection in the x-plane = 0.125904 m, y-plane = 0.995873 m.
Max. coordinate in the x-direction = 1 m, y-direction = 0.06197 m.
Min. coordinate in the x-direction = 0 m, y-direction = -0.0608151 m.
Computing wall distances.

-------------------- Solver Preprocessing ( Zone 0 ) --------------------
WARNING: AoA in the solution file (2.77948 deg.) +
         AoA offset in mesh file (0 deg.) = 2.77948 deg.
WARNING: SU2 will use the dCD/dCL provided in the direct solution file: 0.0186839.
WARNING: SU2 will use the dCMz/dCL provided in the direct solution file: 0.0100423.
Viscous flow: Computing pressure using the ideal gas law
based on the free-stream temperature and a density computed
from the Reynolds number.
Force coefficients computed using free-stream values.

-- Models:
+------------------------------------------------------------------------------+
|          Viscosity Model|        Conductivity Model|              Fluid Model|
+------------------------------------------------------------------------------+
|               SUTHERLAND|          CONSTANT_PRANDTL|             STANDARD_AIR|
+------------------------------------------------------------------------------+
-- Fluid properties:
+------------------------------------------------------------------------------+
|                  Name|    Dim. value|    Ref. value|      Unit|Non-dim. value|
+------------------------------------------------------------------------------+
|        Ref. Viscosity|     1.716e-05|             1|   N.s/m^2|     1.716e-05|
|      Sutherland Temp.|        273.15|             1|         K|        273.15|
|     Sutherland Const.|         110.4|             1|         K|         110.4|
+------------------------------------------------------------------------------+
|        Prandtl (Lam.)|             -|             -|         -|          0.71|
|       Prandtl (Turb.)|             -|             -|         -|           0.9|
+------------------------------------------------------------------------------+
|          Gas Constant|       287.058|             1|  N.m/kg.K|       287.058|
|      Spec. Heat Ratio|             -|             -|         -|           1.4|
+------------------------------------------------------------------------------+
-- Initial and free-stream conditions:
+------------------------------------------------------------------------------+
|                  Name|    Dim. value|    Ref. value|      Unit|Non-dim. value|
+------------------------------------------------------------------------------+
|       Static Pressure|         38515|             1|        Pa|         38515|
|               Density|      0.465631|             1|    kg/m^3|      0.465631|
|           Temperature|        288.15|             1|         K|        288.15|
|          Total Energy|        237984|             1|   m^2/s^2|        237984|
|            Velocity-X|       249.484|             1|       m/s|       249.484|
|            Velocity-Y|       12.1123|             1|       m/s|       12.1123|
|    Velocity Magnitude|       249.778|             1|       m/s|       249.778|
+------------------------------------------------------------------------------+
|             Viscosity|    1.7893e-05|             1|   N.s/m^2|    1.7893e-05|
|          Conductivity|             -|             1|   W/m^2.K|             -|
|     Turb. Kin. Energy|       233.959|             1|   m^2/s^2|       233.959|
|     Spec. Dissipation|        608834|             1|       1/s|        608834|
+------------------------------------------------------------------------------+
|           Mach Number|             -|             -|         -|         0.734|
|       Reynolds Number|             -|             -|         -|       6.5e+06|
+------------------------------------------------------------------------------+
Initialize Jacobian structure (Navier-Stokes). MG level: 0.
Initialize Jacobian structure (SA model).

------------------- Numerics Preprocessing ( Zone 0 ) -------------------

----------------- Integration Preprocessing ( Zone 0 ) ------------------

------------------- Iteration Preprocessing ( Zone 0 ) ------------------
Euler/Navier-Stokes/RANS fluid iteration.

------------------------------ Begin Solver -----------------------------

Simulation Run using the Single-zone Driver
WARNING: SU2 was not compiled for an AVX-capable architecture. Performance could be better,
         see https://su2code.github.io/docs_v7/Build-SU2-Linux-MacOS/#compiler-optimizations
+----------------------------------------------------------------+
|  Inner_Iter|    rms[Rho]|     rms[nu]|          CL|          CD|
+----------------------------------------------------------------+
|           0|   -4.927597|   -6.177257|    0.824044|    0.012055|
|           1|   -4.993270|   -6.295636|    0.824070|    0.012072|
|           2|   -5.066998|   -6.425185|    0.824080|    0.012081|
|           3|   -5.122641|   -6.560950|    0.824080|    0.012083|
|           4|   -5.156861|   -6.699429|    0.824078|    0.012082|
|           5|   -5.174962|   -6.817337|    0.824076|    0.012081|
|           6|   -5.181863|   -6.866860|    0.824077|    0.012080|
|           7|   -5.181882|   -6.850166|    0.824078|    0.012080|
|           8|   -5.178761|   -6.819758|    0.824081|    0.012081|
|           9|   -5.174472|   -6.802807|    0.824083|    0.012082|
|          10|   -5.169220|   -6.800461|    0.824085|    0.012083|
|          11|   -5.162572|   -6.803675|    0.824087|    0.012085|
|          12|   -5.154387|   -6.801476|    0.824089|    0.012086|
|          13|   -5.144981|   -6.787609|    0.824091|    0.012088|
|          14|   -5.134877|   -6.763689|    0.824093|    0.012089|
|          15|   -5.124563|   -6.735891|    0.824095|    0.012090|
|          16|   -5.114448|   -6.710159|    0.824097|    0.012092|
|          17|   -5.104910|   -6.690377|    0.824098|    0.012093|
|          18|   -5.096347|   -6.678643|    0.824099|    0.012094|
|          19|   -5.089175|   -6.675844|    0.824098|    0.012095|
|          20|   -5.083766|   -6.681909|    0.824097|    0.012097|
|          21|   -5.080376|   -6.695783|    0.824093|    0.012097|
|          22|   -5.079077|   -6.715305|    0.824087|    0.012098|
|          23|   -5.079731|   -6.737231|    0.824080|    0.012099|
|          24|   -5.082013|   -6.757749|    0.824070|    0.012099|
|          25|   -5.085450|   -6.773653|    0.824058|    0.012099|
|          26|   -5.089500|   -6.783657|    0.824044|    0.012098|
|          27|   -5.093614|   -6.788868|    0.824028|    0.012097|
|          28|   -5.097300|   -6.791934|    0.824012|    0.012095|
|          29|   -5.100167|   -6.795710|    0.823995|    0.012093|
|          30|   -5.101959|   -6.802327|    0.823977|    0.012091|
|          31|   -5.102567|   -6.812887|    0.823960|    0.012088|
|          32|   -5.102026|   -6.827542|    0.823943|    0.012085|
|          33|   -5.100497|   -6.845673|    0.823928|    0.012081|
|          34|   -5.098232|   -6.866094|    0.823914|    0.012077|
|          35|   -5.095534|   -6.887283|    0.823900|    0.012073|
|          36|   -5.092713|   -6.907654|    0.823889|    0.012068|
|          37|   -5.090055|   -6.925841|    0.823879|    0.012064|
|          38|   -5.087792|   -6.940930|    0.823870|    0.012058|
|          39|   -5.086086|   -6.952536|    0.823863|    0.012053|
|          40|   -5.085024|   -6.960688|    0.823857|    0.012048|
|          41|   -5.084613|   -6.965613|    0.823853|    0.012042|
|          42|   -5.084786|   -6.967549|    0.823849|    0.012036|
|          43|   -5.085413|   -6.966693|    0.823847|    0.012031|
|          44|   -5.086317|   -6.963220|    0.823846|    0.012025|
|          45|   -5.087301|   -6.957389|    0.823846|    0.012020|
|          46|   -5.088172|   -6.949637|    0.823846|    0.012014|
|          47|   -5.088766|   -6.940598|    0.823848|    0.012009|
|          48|   -5.088965|   -6.931046|    0.823851|    0.012004|
|          49|   -5.088709|   -6.921788|    0.823854|    0.012000|
|          50|   -5.087987|   -6.913556|    0.823859|    0.011996|
|          51|   -5.086833|   -6.906936|    0.823865|    0.011992|
|          52|   -5.085302|   -6.902332|    0.823871|    0.011988|
|          53|   -5.083454|   -6.899963|    0.823879|    0.011985|
|          54|   -5.081344|   -6.899882|    0.823887|    0.011982|
|          55|   -5.079007|   -6.901999|    0.823897|    0.011979|
|          56|   -5.076460|   -6.906108|    0.823907|    0.011976|
|          57|   -5.073704|   -6.911918|    0.823919|    0.011974|
|          58|   -5.070729|   -6.919098|    0.823931|    0.011972|
|          59|   -5.067523|   -6.927285|    0.823944|    0.011971|
|          60|   -5.064077|   -6.936135|    0.823958|    0.011969|
|          61|   -5.060392|   -6.945350|    0.823972|    0.011968|
|          62|   -5.056485|   -6.954678|    0.823987|    0.011967|
|          63|   -5.052384|   -6.963917|    0.824002|    0.011966|
|          64|   -5.048132|   -6.972926|    0.824017|    0.011966|
|          65|   -5.043779|   -6.981599|    0.824031|    0.011965|
|          66|   -5.039379|   -6.989865|    0.824046|    0.011965|
|          67|   -5.034984|   -6.997666|    0.824060|    0.011965|
|          68|   -5.030640|   -7.004941|    0.824073|    0.011966|
|          69|   -5.026380|   -7.011642|    0.824085|    0.011966|
|          70|   -5.022229|   -7.017749|    0.824097|    0.011966|
|          71|   -5.018199|   -7.023278|    0.824107|    0.011967|
|          72|   -5.014291|   -7.028268|    0.824117|    0.011968|
|          73|   -5.010498|   -7.032786|    0.824126|    0.011968|
|          74|   -5.006807|   -7.036910|    0.824133|    0.011969|
|          75|   -5.003203|   -7.040705|    0.824140|    0.011970|
|          76|   -4.999670|   -7.044225|    0.824146|    0.011971|
|          77|   -4.996194|   -7.047479|    0.824151|    0.011972|
|          78|   -4.992764|   -7.050421|    0.824155|    0.011973|
|          79|   -4.989376|   -7.052970|    0.824158|    0.011974|
|          80|   -4.986029|   -7.055030|    0.824161|    0.011975|
|          81|   -4.982735|   -7.056533|    0.824163|    0.011977|
|          82|   -4.979508|   -7.057454|    0.824165|    0.011978|
|          83|   -4.976374|   -7.057820|    0.824167|    0.011979|
|          84|   -4.973366|   -7.057720|    0.824168|    0.011980|
|          85|   -4.970523|   -7.057298|    0.824169|    0.011982|
|          86|   -4.967892|   -7.056730|    0.824171|    0.011983|
|          87|   -4.965518|   -7.056202|    0.824172|    0.011985|
|          88|   -4.963452|   -7.055889|    0.824173|    0.011986|
|          89|   -4.961736|   -7.055933|    0.824174|    0.011988|
|          90|   -4.960409|   -7.056432|    0.824175|    0.011989|
|          91|   -4.959502|   -7.057435|    0.824177|    0.011991|
|          92|   -4.959033|   -7.058934|    0.824178|    0.011993|
|          93|   -4.959009|   -7.060881|    0.824180|    0.011995|
|          94|   -4.959422|   -7.063196|    0.824182|    0.011997|
|          95|   -4.960252|   -7.065778|    0.824184|    0.012000|
|          96|   -4.961463|   -7.068522|    0.824186|    0.012002|
|          97|   -4.963009|   -7.071332|    0.824188|    0.012004|
|          98|   -4.964831|   -7.074125|    0.824190|    0.012007|
|          99|   -4.966863|   -7.076834|    0.824193|    0.012009|
|         100|   -4.969030|   -7.079414|    0.824195|    0.012012|
|         101|   -4.971253|   -7.081850|    0.824197|    0.012000|
+-----------------------------------------------------------------------+
|Fixed CL Mode                           |Value                         |
+-----------------------------------------------------------------------+
|Current CL                              |0.824197                      |
|Target CL                               |0.824                         |
|Previous AOA                            |2.77948                       |
|Changed AoA by                          |-0.000974578                  |
+-----------------------------------------------------------------------+
+----------------------------------------------------------------+
|  Inner_Iter|    rms[Rho]|     rms[nu]|          CL|          CD|
+----------------------------------------------------------------+
|         102|   -3.204374|   -7.016795|    0.824200|    0.012003|
|         103|   -3.587450|   -7.050171|    0.824202|    0.012006|
|         104|   -3.828900|   -7.062131|    0.824204|    0.012008|
|         105|   -3.908021|   -7.069612|    0.824205|    0.012011|
|         106|   -3.963300|   -7.075479|    0.824207|    0.012013|
|         107|   -4.034934|   -7.080451|    0.824208|    0.012016|
|         108|   -4.123544|   -7.084795|    0.824209|    0.012018|
|         109|   -4.216436|   -7.088673|    0.824210|    0.012021|
|         110|   -4.296337|   -7.092178|    0.824211|    0.012023|
|         111|   -4.353583|   -7.095333|    0.824211|    0.012025|
|         112|   -4.389239|   -7.098157|    0.824210|    0.012027|
|         113|   -4.407603|   -7.100732|    0.824210|    0.012029|
|         114|   -4.413490|   -7.103180|    0.824209|    0.012031|
|         115|   -4.413598|   -7.105591|    0.824207|    0.012032|
|         116|   -4.414831|   -7.108000|    0.824206|    0.012034|
|         117|   -4.421478|   -7.110403|    0.824204|    0.012035|
|         118|   -4.434307|   -7.112788|    0.824202|    0.012036|
|         119|   -4.451329|   -7.115159|    0.824199|    0.012037|
|         120|   -4.469347|   -7.117523|    0.824197|    0.012038|
|         121|   -4.485735|   -7.119883|    0.824194|    0.012038|
|         122|   -4.499634|   -7.122211|    0.824191|    0.012039|
|         123|   -4.511819|   -7.124463|    0.824188|    0.012039|
|         124|   -4.523609|   -7.126581|    0.824185|    0.012039|
|         125|   -4.535887|   -7.128517|    0.824182|    0.012039|
|         126|   -4.548804|   -7.130241|    0.824179|    0.012039|
|         127|   -4.561994|   -7.131737|    0.824176|    0.012039|
|         128|   -4.574914|   -7.132983|    0.824173|    0.012039|
|         129|   -4.587064|   -7.133966|    0.824171|    0.012039|
|         130|   -4.598075|   -7.134665|    0.824168|    0.012038|
|         131|   -4.607752|   -7.135074|    0.824166|    0.012038|
|         132|   -4.616143|   -7.135195|    0.824163|    0.012037|
|         133|   -4.623577|   -7.135041|    0.824161|    0.012037|
|         134|   -4.630616|   -7.134626|    0.824159|    0.012036|
|         135|   -4.637912|   -7.133967|    0.824157|    0.012035|
|         136|   -4.646041|   -7.133086|    0.824155|    0.012035|
|         137|   -4.655373|   -7.132008|    0.824153|    0.012034|
|         138|   -4.665999|   -7.130762|    0.824151|    0.012033|
|         139|   -4.677711|   -7.129382|    0.824150|    0.012033|
|         140|   -4.690028|   -7.127909|    0.824148|    0.012032|
|         141|   -4.702265|   -7.126383|    0.824146|    0.012031|
|         142|   -4.713670|   -7.124846|    0.824144|    0.012030|
|         143|   -4.723606|   -7.123345|    0.824142|    0.012029|
|         144|   -4.731728|   -7.121923|    0.824139|    0.012028|
|         145|   -4.738086|   -7.120625|    0.824137|    0.012027|
|         146|   -4.743091|   -7.119492|    0.824134|    0.012026|
|         147|   -4.747362|   -7.118553|    0.824131|    0.012025|
|         148|   -4.751538|   -7.117832|    0.824128|    0.012024|
|         149|   -4.756109|   -7.117344|    0.824124|    0.012023|
|         150|   -4.761336|   -7.117093|    0.824120|    0.012022|
|         151|   -4.767227|   -7.117064|    0.824115|    0.012020|
|         152|   -4.773585|   -7.117237|    0.824111|    0.012019|
|         153|   -4.780077|   -7.117592|    0.824105|    0.012018|
|         154|   -4.786326|   -7.118083|    0.824100|    0.012016|
|         155|   -4.792000|   -7.118670|    0.824094|    0.012015|
|         156|   -4.796874|   -7.119307|    0.824087|    0.012013|
|         157|   -4.800856|   -7.119950|    0.824081|    0.012011|
|         158|   -4.803985|   -7.120555|    0.824074|    0.012010|
|         159|   -4.806392|   -7.121083|    0.824066|    0.012008|
|         160|   -4.808249|   -7.121503|    0.824058|    0.012006|
|         161|   -4.809729|   -7.121794|    0.824051|    0.012004|
|         162|   -4.810974|   -7.121942|    0.824043|    0.012002|
|         163|   -4.812084|   -7.121943|    0.824034|    0.012001|
|         164|   -4.813120|   -7.121801|    0.824026|    0.011999|
|         165|   -4.814110|   -7.121528|    0.824018|    0.011997|
|         166|   -4.815066|   -7.121144|    0.824010|    0.011995|
|         167|   -4.815995|   -7.120670|    0.824001|    0.011994|
|         168|   -4.816903|   -7.120133|    0.823993|    0.011992|
|         169|   -4.817798|   -7.119554|    0.823986|    0.011990|
|         170|   -4.818693|   -7.118957|    0.823978|    0.011988|
|         171|   -4.819599|   -7.118358|    0.823971|    0.011987|
|         172|   -4.820522|   -7.117775|    0.823964|    0.011985|
|         173|   -4.821466|   -7.117219|    0.823958|    0.011984|
|         174|   -4.822427|   -7.116698|    0.823952|    0.011982|
|         175|   -4.823399|   -7.116212|    0.823947|    0.011981|
|         176|   -4.824372|   -7.115763|    0.823942|    0.011980|
|         177|   -4.825333|   -7.115348|    0.823938|    0.011979|
|         178|   -4.826275|   -7.114965|    0.823934|    0.011978|
|         179|   -4.827191|   -7.114610|    0.823931|    0.011977|
|         180|   -4.828076|   -7.114284|    0.823929|    0.011976|
|         181|   -4.828933|   -7.113987|    0.823927|    0.011975|
|         182|   -4.829766|   -7.113725|    0.823926|    0.011974|
|         183|   -4.830582|   -7.113507|    0.823926|    0.011973|
|         184|   -4.831389|   -7.113348|    0.823926|    0.011973|
|         185|   -4.832198|   -7.113264|    0.823927|    0.011972|
|         186|   -4.833018|   -7.113275|    0.823928|    0.011972|
|         187|   -4.833858|   -7.113403|    0.823930|    0.011972|
|         188|   -4.834724|   -7.113671|    0.823932|    0.011971|
|         189|   -4.835621|   -7.114103|    0.823935|    0.011971|
|         190|   -4.836547|   -7.114723|    0.823938|    0.011971|
|         191|   -4.837500|   -7.115550|    0.823942|    0.011971|
|         192|   -4.838470|   -7.116605|    0.823946|    0.011971|
|         193|   -4.839446|   -7.117906|    0.823951|    0.011971|
|         194|   -4.840410|   -7.119466|    0.823955|    0.011971|
|         195|   -4.841345|   -7.121295|    0.823960|    0.011971|
|         196|   -4.842228|   -7.123398|    0.823965|    0.011971|
|         197|   -4.843036|   -7.125777|    0.823971|    0.011971|
|         198|   -4.843748|   -7.128429|    0.823976|    0.011971|
|         199|   -4.844344|   -7.131347|    0.823982|    0.011972|
|         200|   -4.844810|   -7.134520|    0.823988|    0.011972|
|         201|   -4.845134|   -7.137934|    0.823994|    0.011973|
+-----------------------------------------------------------------------+
|Fixed CL Mode                           |Value                         |
+-----------------------------------------------------------------------+
|Current CL                              |0.823994                      |
|Target CL                               |0.824                         |
|Previous AOA                            |2.77851                       |
|Changed AoA by                          |6.05467e-05                   |
+-----------------------------------------------------------------------+
+----------------------------------------------------------------+
|  Inner_Iter|    rms[Rho]|     rms[nu]|          CL|          CD|
+----------------------------------------------------------------+
|         202|   -4.383291|   -7.141293|    0.824000|    0.011974|
|         203|   -4.674413|   -7.145370|    0.824005|    0.011974|
|         204|   -4.787262|   -7.149478|    0.824011|    0.011975|
|         205|   -4.809684|   -7.153705|    0.824017|    0.011975|
|         206|   -4.817500|   -7.158053|    0.824023|    0.011976|
|         207|   -4.823722|   -7.162512|    0.824028|    0.011977|
|         208|   -4.828921|   -7.167073|    0.824034|    0.011977|
|         209|   -4.832258|   -7.171728|    0.824039|    0.011978|
|         210|   -4.833842|   -7.176473|    0.824044|    0.011979|
|         211|   -4.834493|   -7.181304|    0.824049|    0.011980|
|         212|   -4.834923|   -7.186221|    0.824054|    0.011981|
|         213|   -4.835502|   -7.191226|    0.824058|    0.011982|
|         214|   -4.836425|   -7.196326|    0.824062|    0.011982|
|         215|   -4.837871|   -7.201529|    0.824066|    0.011983|
|         216|   -4.839997|   -7.206844|    0.824070|    0.011984|
|         217|   -4.842886|   -7.212287|    0.824073|    0.011986|
|         218|   -4.846518|   -7.217871|    0.824076|    0.011987|
|         219|   -4.850800|   -7.223616|    0.824079|    0.011988|
|         220|   -4.855633|   -7.229541|    0.824081|    0.011989|
|         221|   -4.860958|   -7.235666|    0.824083|    0.011990|
|         222|   -4.866775|   -7.242011|    0.824084|    0.011991|
|         223|   -4.873117|   -7.248597|    0.824085|    0.011992|
|         224|   -4.880023|   -7.255443|    0.824086|    0.011993|
|         225|   -4.887505|   -7.262567|    0.824087|    0.011994|
|         226|   -4.895548|   -7.269989|    0.824087|    0.011995|
|         227|   -4.904101|   -7.277724|    0.824087|    0.011997|
|         228|   -4.913091|   -7.285785|    0.824086|    0.011998|
|         229|   -4.922421|   -7.294186|    0.824085|    0.011999|
|         230|   -4.931977|   -7.302936|    0.824084|    0.012000|
|         231|   -4.941630|   -7.312039|    0.824082|    0.012001|
|         232|   -4.951246|   -7.321500|    0.824080|    0.012002|
|         233|   -4.960689|   -7.331316|    0.824078|    0.012003|
|         234|   -4.969832|   -7.341483|    0.824076|    0.012004|
|         235|   -4.978555|   -7.351991|    0.824074|    0.012005|
|         236|   -4.986750|   -7.362826|    0.824071|    0.012005|
|         237|   -4.994317|   -7.373966|    0.824068|    0.012006|
|         238|   -5.001172|   -7.385388|    0.824065|    0.012007|
|         239|   -5.007238|   -7.397059|    0.824062|    0.012008|
|         240|   -5.012460|   -7.408942|    0.824059|    0.012008|
|         241|   -5.016799|   -7.420996|    0.824055|    0.012009|
|         242|   -5.020245|   -7.433170|    0.824052|    0.012010|
|         243|   -5.022812|   -7.445413|    0.824048|    0.012010|
|         244|   -5.024548|   -7.457667|    0.824045|    0.012011|
|         245|   -5.025526|   -7.469872|    0.824042|    0.012011|
|         246|   -5.025844|   -7.481967|    0.824038|    0.012012|
|         247|   -5.025615|   -7.493891|    0.824035|    0.012012|
|         248|   -5.024960|   -7.505586|    0.824032|    0.012012|
|         249|   -5.024000|   -7.516998|    0.824029|    0.012013|
|         250|   -5.022851|   -7.528078|    0.824026|    0.012013|
|         251|   -5.021619|   -7.538785|    0.824023|    0.012013|
|         252|   -5.020402|   -7.549085|    0.824020|    0.012013|
|         253|   -5.019286|   -7.558956|    0.824017|    0.012014|
|         254|   -5.018347|   -7.568382|    0.824015|    0.012014|
|         255|   -5.017653|   -7.577356|    0.824012|    0.012014|
|         256|   -5.017263|   -7.585877|    0.824010|    0.012014|
|         257|   -5.017228|   -7.593948|    0.824007|    0.012014|
|         258|   -5.017591|   -7.601576|    0.824005|    0.012014|
|         259|   -5.018390|   -7.608768|    0.824003|    0.012014|
|         260|   -5.019654|   -7.615532|    0.824001|    0.012014|
|         261|   -5.021406|   -7.621871|    0.823999|    0.012013|
|         262|   -5.023663|   -7.627784|    0.823998|    0.012013|
|         263|   -5.026434|   -7.633272|    0.823996|    0.012013|
|         264|   -5.029724|   -7.638331|    0.823994|    0.012013|
|         265|   -5.033532|   -7.642958|    0.823993|    0.012012|
|         266|   -5.037851|   -7.647150|    0.823991|    0.012012|
|         267|   -5.042669|   -7.650904|    0.823990|    0.012012|
|         268|   -5.047971|   -7.654222|    0.823988|    0.012011|
|         269|   -5.053734|   -7.657110|    0.823987|    0.012011|
|         270|   -5.059932|   -7.659582|    0.823986|    0.012010|
|         271|   -5.066534|   -7.661657|    0.823984|    0.012010|
|         272|   -5.073501|   -7.663365|    0.823983|    0.012009|
|         273|   -5.080791|   -7.664738|    0.823982|    0.012009|
|         274|   -5.088355|   -7.665816|    0.823981|    0.012008|
|         275|   -5.096139|   -7.666640|    0.823979|    0.012008|
|         276|   -5.104084|   -7.667256|    0.823978|    0.012007|
|         277|   -5.112122|   -7.667705|    0.823977|    0.012006|
|         278|   -5.120184|   -7.668031|    0.823975|    0.012006|
|         279|   -5.128196|   -7.668267|    0.823974|    0.012005|
|         280|   -5.136080|   -7.668445|    0.823973|    0.012004|
|         281|   -5.143757|   -7.668584|    0.823972|    0.012004|
|         282|   -5.151149|   -7.668699|    0.823970|    0.012003|
|         283|   -5.158179|   -7.668795|    0.823969|    0.012002|
|         284|   -5.164775|   -7.668868|    0.823968|    0.012001|
|         285|   -5.170875|   -7.668909|    0.823967|    0.012001|
|         286|   -5.176424|   -7.668904|    0.823966|    0.012000|
|         287|   -5.181380|   -7.668835|    0.823965|    0.011999|
|         288|   -5.185714|   -7.668683|    0.823964|    0.011998|
|         289|   -5.189411|   -7.668434|    0.823963|    0.011998|
|         290|   -5.192474|   -7.668072|    0.823962|    0.011997|
|         291|   -5.194917|   -7.667593|    0.823962|    0.011996|
|         292|   -5.196769|   -7.666994|    0.823961|    0.011995|
|         293|   -5.198071|   -7.666282|    0.823961|    0.011995|
|         294|   -5.198872|   -7.665473|    0.823960|    0.011994|
|         295|   -5.199229|   -7.664589|    0.823960|    0.011993|
|         296|   -5.199202|   -7.663658|    0.823960|    0.011993|
|         297|   -5.198854|   -7.662714|    0.823960|    0.011992|
|         298|   -5.198245|   -7.661795|    0.823960|    0.011991|
|         299|   -5.197436|   -7.660938|    0.823960|    0.011991|
|         300|   -5.196483|   -7.660177|    0.823960|    0.011990|
|         301|   -5.195434|   -7.659544|    0.823960|    0.011993|
+-----------------------------------------------------------------------+
|Fixed CL Mode                           |Value                         |
+-----------------------------------------------------------------------+
|Current CL                              |0.82396                       |
|Target CL                               |0.824                         |
|Previous AOA                            |2.77857                       |
|Changed AoA by                          |0.000200663                   |
+-----------------------------------------------------------------------+
+----------------------------------------------------------------+
|  Inner_Iter|    rms[Rho]|     rms[nu]|          CL|          CD|
+----------------------------------------------------------------+
|         302|   -3.890474|   -7.618159|    0.823961|    0.011992|
|         303|   -4.274213|   -7.638794|    0.823961|    0.011992|
|         304|   -4.517976|   -7.645116|    0.823962|    0.011992|
|         305|   -4.596298|   -7.648543|    0.823962|    0.011991|
|         306|   -4.647289|   -7.650948|    0.823963|    0.011991|
|         307|   -4.711202|   -7.652809|    0.823964|    0.011991|
|         308|   -4.786854|   -7.654298|    0.823965|    0.011990|
|         309|   -4.860135|   -7.655513|    0.823966|    0.011990|
|         310|   -4.916399|   -7.656512|    0.823967|    0.011990|
|         311|   -4.952118|   -7.657311|    0.823968|    0.011990|
|         312|   -4.972564|   -7.657916|    0.823969|    0.011990|
|         313|   -4.983043|   -7.658365|    0.823970|    0.011990|
|         314|   -4.987207|   -7.658709|    0.823971|    0.011990|
|         315|   -4.988818|   -7.658981|    0.823972|    0.011990|
|         316|   -4.991577|   -7.659175|    0.823973|    0.011990|
|         317|   -4.997773|   -7.659275|    0.823975|    0.011990|
|         318|   -5.007642|   -7.659262|    0.823976|    0.011991|
|         319|   -5.019787|   -7.659135|    0.823977|    0.011991|
|         320|   -5.032232|   -7.658910|    0.823978|    0.011991|
|         321|   -5.043547|   -7.658606|    0.823979|    0.011991|
|         322|   -5.053413|   -7.658241|    0.823980|    0.011992|
|         323|   -5.062382|   -7.657835|    0.823981|    0.011992|
|         324|   -5.071198|   -7.657407|    0.823982|    0.011992|
|         325|   -5.080276|   -7.656981|    0.823984|    0.011993|
|         326|   -5.089576|   -7.656589|    0.823985|    0.011993|
|         327|   -5.098773|   -7.656264|    0.823986|    0.011994|
|         328|   -5.107477|   -7.656043|    0.823987|    0.011994|
|         329|   -5.115381|   -7.655960|    0.823988|    0.011995|
|         330|   -5.122319|   -7.656043|    0.823988|    0.011995|
|         331|   -5.128289|   -7.656318|    0.823989|    0.011996|
|         332|   -5.133453|   -7.656804|    0.823990|    0.011996|
|         333|   -5.138127|   -7.657512|    0.823991|    0.011997|
|         334|   -5.142720|   -7.658445|    0.823992|    0.011997|
|         335|   -5.147648|   -7.659596|    0.823993|    0.011998|
|         336|   -5.153245|   -7.660953|    0.823994|    0.011998|
|         337|   -5.159707|   -7.662494|    0.823994|    0.011999|
|         338|   -5.167067|   -7.664194|    0.823995|    0.011999|
|         339|   -5.175202|   -7.666021|    0.823996|    0.012000|
|         340|   -5.183866|   -7.667944|    0.823996|    0.012000|
|         341|   -5.192732|   -7.669933|    0.823997|    0.012001|
|         342|   -5.201467|   -7.671958|    0.823998|    0.012001|
|         343|   -5.209796|   -7.673993|    0.823998|    0.012002|
|         344|   -5.217569|   -7.676016|    0.823999|    0.012002|
|         345|   -5.224786|   -7.678010|    0.824000|    0.012003|
|         346|   -5.231583|   -7.679960|    0.824000|    0.012003|
|         347|   -5.238174|   -7.681859|    0.824001|    0.012004|
|         348|   -5.244784|   -7.683705|    0.824001|    0.012004|
|         349|   -5.251583|   -7.685501|    0.824002|    0.012005|
|         350|   -5.258646|   -7.687256|    0.824002|    0.012005|
|         351|   -5.265936|   -7.688982|    0.824003|    0.012005|
|         352|   -5.273324|   -7.690695|    0.824003|    0.012006|
|         353|   -5.280617|   -7.692416|    0.824003|    0.012006|
|         354|   -5.287601|   -7.694167|    0.824004|    0.012006|
|         355|   -5.294077|   -7.695973|    0.824004|    0.012007|
|         356|   -5.299896|   -7.697862|    0.824005|    0.012007|
|         357|   -5.304968|   -7.699859|    0.824005|    0.012007|
|         358|   -5.309264|   -7.701987|    0.824005|    0.012007|
|         359|   -5.312806|   -7.704268|    0.824006|    0.012008|
|         360|   -5.315639|   -7.706722|    0.824006|    0.012008|
|         361|   -5.317822|   -7.709365|    0.824006|    0.012008|
|         362|   -5.319411|   -7.712209|    0.824007|    0.012008|
|         363|   -5.320452|   -7.715263|    0.824007|    0.012008|
|         364|   -5.320984|   -7.718530|    0.824007|    0.012009|
|         365|   -5.321043|   -7.722009|    0.824008|    0.012009|
|         366|   -5.320665|   -7.725697|    0.824008|    0.012009|
|         367|   -5.319894|   -7.729586|    0.824008|    0.012009|
|         368|   -5.318782|   -7.733665|    0.824008|    0.012009|
|         369|   -5.317388|   -7.737919|    0.824008|    0.012009|
|         370|   -5.315778|   -7.742333|    0.824008|    0.012009|
|         371|   -5.314021|   -7.746889|    0.824008|    0.012009|
|         372|   -5.312186|   -7.751567|    0.824008|    0.012009|
|         373|   -5.310338|   -7.756346|    0.824008|    0.012009|
|         374|   -5.308542|   -7.761205|    0.824008|    0.012009|
|         375|   -5.306856|   -7.766123|    0.824008|    0.012009|
|         376|   -5.305332|   -7.771079|    0.824008|    0.012009|
|         377|   -5.304020|   -7.776052|    0.824007|    0.012009|
|         378|   -5.302963|   -7.781021|    0.824007|    0.012008|
|         379|   -5.302200|   -7.785967|    0.824006|    0.012008|
|         380|   -5.301766|   -7.790872|    0.824006|    0.012008|
|         381|   -5.301690|   -7.795720|    0.824005|    0.012008|
|         382|   -5.301997|   -7.800497|    0.824004|    0.012008|
|         383|   -5.302709|   -7.805190|    0.824004|    0.012008|
|         384|   -5.303841|   -7.809791|    0.824003|    0.012008|
|         385|   -5.305405|   -7.814293|    0.824002|    0.012007|
|         386|   -5.307407|   -7.818693|    0.824001|    0.012007|
|         387|   -5.309852|   -7.822990|    0.824000|    0.012007|
|         388|   -5.312738|   -7.827189|    0.823999|    0.012007|
|         389|   -5.316060|   -7.831298|    0.823998|    0.012007|
|         390|   -5.319809|   -7.835327|    0.823997|    0.012006|
|         391|   -5.323973|   -7.839291|    0.823996|    0.012006|
|         392|   -5.328536|   -7.843209|    0.823995|    0.012006|
|         393|   -5.333477|   -7.847102|    0.823994|    0.012006|
|         394|   -5.338774|   -7.850993|    0.823993|    0.012006|
|         395|   -5.344399|   -7.854906|    0.823991|    0.012005|
|         396|   -5.350323|   -7.858866|    0.823990|    0.012005|
|         397|   -5.356511|   -7.862896|    0.823989|    0.012005|
|         398|   -5.362928|   -7.867020|    0.823988|    0.012005|
|         399|   -5.369531|   -7.871257|    0.823987|    0.012005|
|         400|   -5.376280|   -7.875623|    0.823986|    0.012004|
|         401|   -5.383129|   -7.880131|    0.823985|    0.012005|
+-----------------------------------------------------------------------+
|Fixed CL Mode                           |Value                         |
+-----------------------------------------------------------------------+
|Current CL                              |0.823985                      |
|Target CL                               |0.824                         |
|Previous AOA                            |2.77877                       |
|Changed AoA by                          |7.00921e-05                   |
+-----------------------------------------------------------------------+
+----------------------------------------------------------------+
|  Inner_Iter|    rms[Rho]|     rms[nu]|          CL|          CD|
+----------------------------------------------------------------+
|         402|   -4.345823|   -7.870139|    0.823984|    0.012005|
|         403|   -4.721090|   -7.882445|    0.823983|    0.012005|
|         404|   -4.946170|   -7.889433|    0.823982|    0.012005|
|         405|   -5.016544|   -7.895562|    0.823981|    0.012005|
|         406|   -5.063564|   -7.901541|    0.823981|    0.012004|
|         407|   -5.120670|   -7.907508|    0.823980|    0.012004|
|         408|   -5.185292|   -7.913474|    0.823979|    0.012004|
|         409|   -5.245189|   -7.919422|    0.823979|    0.012004|
|         410|   -5.290121|   -7.925331|    0.823978|    0.012004|
|         411|   -5.319258|   -7.931179|    0.823978|    0.012004|
|         412|   -5.337209|   -7.936952|    0.823977|    0.012004|
|         413|   -5.347817|   -7.942664|    0.823977|    0.012004|
|         414|   -5.353542|   -7.948344|    0.823977|    0.012003|
|         415|   -5.356883|   -7.954025|    0.823977|    0.012003|
|         416|   -5.360370|   -7.959731|    0.823977|    0.012003|
|         417|   -5.365627|   -7.965482|    0.823977|    0.012003|
|         418|   -5.372860|   -7.971303|    0.823977|    0.012003|
|         419|   -5.381138|   -7.977228|    0.823977|    0.012003|
|         420|   -5.389168|   -7.983293|    0.823977|    0.012003|
|         421|   -5.396061|   -7.989530|    0.823977|    0.012003|
|         422|   -5.401660|   -7.995960|    0.823978|    0.012003|
|         423|   -5.406334|   -8.002590|    0.823978|    0.012003|
|         424|   -5.410548|   -8.009414|    0.823979|    0.012003|
|         425|   -5.414553|   -8.016419|    0.823979|    0.012003|
|         426|   -5.418338|   -8.023574|    0.823980|    0.012003|
|         427|   -5.421744|   -8.030845|    0.823981|    0.012003|
|         428|   -5.424591|   -8.038184|    0.823981|    0.012003|
|         429|   -5.426753|   -8.045532|    0.823982|    0.012003|
|         430|   -5.428174|   -8.052824|    0.823983|    0.012003|
|         431|   -5.428873|   -8.059982|    0.823984|    0.012003|
|         432|   -5.428943|   -8.066922|    0.823985|    0.012003|
|         433|   -5.428540|   -8.073557|    0.823986|    0.012003|
|         434|   -5.427861|   -8.079795|    0.823987|    0.012003|
|         435|   -5.427106|   -8.085543|    0.823988|    0.012004|
|         436|   -5.426437|   -8.090712|    0.823989|    0.012004|
|         437|   -5.425954|   -8.095221|    0.823990|    0.012004|
|         438|   -5.425691|   -8.099000|    0.823991|    0.012004|
|         439|   -5.425624|   -8.102004|    0.823992|    0.012004|
|         440|   -5.425688|   -8.104206|    0.823994|    0.012004|
|         441|   -5.425803|   -8.105606|    0.823995|    0.012004|
|         442|   -5.425898|   -8.106231|    0.823996|    0.012004|
|         443|   -5.425932|   -8.106131|    0.823997|    0.012004|
|         444|   -5.425912|   -8.105379|    0.823998|    0.012005|
|         445|   -5.425890|   -8.104069|    0.823999|    0.012005|
|         446|   -5.425950|   -8.102304|    0.824000|    0.012005|
|         447|   -5.426192|   -8.100197|    0.824001|    0.012005|
|         448|   -5.426708|   -8.097863|    0.824003|    0.012005|
|         449|   -5.427567|   -8.095412|    0.824004|    0.012005|
|         450|   -5.428808|   -8.092949|    0.824005|    0.012005|
|         451|   -5.430439|   -8.090565|    0.824006|    0.012005|
|         452|   -5.432447|   -8.088340|    0.824006|    0.012005|
|         453|   -5.434802|   -8.086343|    0.824007|    0.012005|
|         454|   -5.437473|   -8.084626|    0.824008|    0.012005|
|         455|   -5.440436|   -8.083225|    0.824009|    0.012006|
|         456|   -5.443673|   -8.082161|    0.824010|    0.012006|
|         457|   -5.447180|   -8.081442|    0.824011|    0.012006|
|         458|   -5.450960|   -8.081057|    0.824011|    0.012006|
|         459|   -5.455021|   -8.080988|    0.824012|    0.012006|
|         460|   -5.459370|   -8.081201|    0.824013|    0.012006|
|         461|   -5.464012|   -8.081656|    0.824013|    0.012006|
|         462|   -5.468941|   -8.082303|    0.824014|    0.012006|
|         463|   -5.474147|   -8.083091|    0.824015|    0.012006|
|         464|   -5.479610|   -8.083964|    0.824015|    0.012006|
|         465|   -5.485300|   -8.084871|    0.824016|    0.012006|
|         466|   -5.491185|   -8.085761|    0.824016|    0.012006|
|         467|   -5.497224|   -8.086593|    0.824017|    0.012006|
|         468|   -5.503374|   -8.087334|    0.824017|    0.012006|
|         469|   -5.509588|   -8.087962|    0.824017|    0.012006|
|         470|   -5.515814|   -8.088469|    0.824018|    0.012005|
|         471|   -5.521998|   -8.088858|    0.824018|    0.012005|
|         472|   -5.528085|   -8.089148|    0.824018|    0.012005|
|         473|   -5.534016|   -8.089365|    0.824019|    0.012005|
|         474|   -5.539731|   -8.089547|    0.824019|    0.012005|
|         475|   -5.545170|   -8.089740|    0.824019|    0.012005|
|         476|   -5.550278|   -8.089992|    0.824019|    0.012005|
|         477|   -5.555000|   -8.090352|    0.824019|    0.012005|
|         478|   -5.559289|   -8.090873|    0.824019|    0.012005|
|         479|   -5.563105|   -8.091599|    0.824019|    0.012005|
|         480|   -5.566418|   -8.092571|    0.824019|    0.012004|
|         481|   -5.569206|   -8.093821|    0.824019|    0.012004|
|         482|   -5.571461|   -8.095371|    0.824019|    0.012004|
|         483|   -5.573183|   -8.097237|    0.824019|    0.012004|
|         484|   -5.574387|   -8.099419|    0.824019|    0.012004|
|         485|   -5.575093|   -8.101911|    0.824019|    0.012004|
|         486|   -5.575335|   -8.104691|    0.824018|    0.012004|
|         487|   -5.575153|   -8.107729|    0.824018|    0.012003|
|         488|   -5.574592|   -8.110983|    0.824018|    0.012003|
|         489|   -5.573704|   -8.114404|    0.824017|    0.012003|
|         490|   -5.572542|   -8.117932|    0.824017|    0.012003|
|         491|   -5.571163|   -8.121502|    0.824016|    0.012003|
|         492|   -5.569623|   -8.125042|    0.824016|    0.012003|
|         493|   -5.567976|   -8.128479|    0.824015|    0.012002|
|         494|   -5.566275|   -8.131738|    0.824015|    0.012002|
|         495|   -5.564571|   -8.134745|    0.824014|    0.012002|
|         496|   -5.562912|   -8.137428|    0.824013|    0.012002|
|         497|   -5.561342|   -8.139722|    0.824013|    0.012002|
|         498|   -5.559900|   -8.141568|    0.824012|    0.012002|
|         499|   -5.558623|   -8.142915|    0.824012|    0.012002|
|         500|   -5.557544|   -8.143720|    0.824011|    0.012002|
|         501|   -5.556691|   -8.143954|    0.824010|    0.012001|
+-----------------------------------------------------------------------+
|Fixed CL Mode                           |Value                         |
+-----------------------------------------------------------------------+
|Current CL                              |0.82401                       |
|Target CL                               |0.824                         |
|Previous AOA                            |2.77884                       |
|Changed AoA by                          |-5.45554e-05                  |
+-----------------------------------------------------------------------+
+----------------------------------------------------------------+
|  Inner_Iter|    rms[Rho]|     rms[nu]|          CL|          CD|
+----------------------------------------------------------------+
|         502|   -4.455523|   -8.114065|    0.824010|    0.012001|
|         503|   -4.836997|   -8.128412|    0.824009|    0.012001|
|         504|   -5.072697|   -8.131660|    0.824008|    0.012001|
|         505|   -5.142676|   -8.132067|    0.824008|    0.012000|
|         506|   -5.185917|   -8.130962|    0.824007|    0.012000|
|         507|   -5.240005|   -8.128738|    0.824006|    0.012000|
|         508|   -5.302388|   -8.125627|    0.824006|    0.012000|
|         509|   -5.360199|   -8.121830|    0.824005|    0.012000|
|         510|   -5.402875|   -8.117516|    0.824005|    0.012000|
|         511|   -5.429814|   -8.112816|    0.824004|    0.012000|
|         512|   -5.446030|   -8.107841|    0.824004|    0.012000|
|         513|   -5.455625|   -8.102716|    0.824003|    0.012000|
|         514|   -5.461138|   -8.097552|    0.824003|    0.012000|
|         515|   -5.465003|   -8.092451|    0.824003|    0.012000|
|         516|   -5.469635|   -8.087479|    0.824002|    0.012000|
|         517|   -5.476590|   -8.082692|    0.824002|    0.012000|
|         518|   -5.486066|   -8.078141|    0.824002|    0.012001|
|         519|   -5.497160|   -8.073874|    0.824002|    0.012001|
|         520|   -5.508593|   -8.069939|    0.824002|    0.012001|
|         521|   -5.519460|   -8.066379|    0.824002|    0.012001|
|         522|   -5.529581|   -8.063225|    0.824002|    0.012001|
|         523|   -5.539318|   -8.060499|    0.824002|    0.012001|
|         524|   -5.549138|   -8.058215|    0.824002|    0.012001|
|         525|   -5.559270|   -8.056384|    0.824002|    0.012001|
|         526|   -5.569628|   -8.055008|    0.824002|    0.012001|
|         527|   -5.579924|   -8.054085|    0.824002|    0.012001|
|         528|   -5.589820|   -8.053611|    0.824002|    0.012002|
|         529|   -5.599031|   -8.053569|    0.824003|    0.012002|
|         530|   -5.607378|   -8.053938|    0.824003|    0.012002|
|         531|   -5.614801|   -8.054688|    0.824003|    0.012002|
|         532|   -5.621368|   -8.055780|    0.824003|    0.012002|
|         533|   -5.627270|   -8.057170|    0.824004|    0.012002|
|         534|   -5.632777|   -8.058806|    0.824004|    0.012003|
|         535|   -5.638167|   -8.060632|    0.824004|    0.012003|
|         536|   -5.643666|   -8.062587|    0.824005|    0.012003|
|         537|   -5.649389|   -8.064608|    0.824005|    0.012003|
|         538|   -5.655327|   -8.066633|    0.824006|    0.012003|
|         539|   -5.661352|   -8.068606|    0.824006|    0.012004|
|         540|   -5.667245|   -8.070473|    0.824006|    0.012004|
|         541|   -5.672743|   -8.072190|    0.824007|    0.012004|
|         542|   -5.677596|   -8.073723|    0.824007|    0.012004|
|         543|   -5.681620|   -8.075051|    0.824007|    0.012004|
|         544|   -5.684741|   -8.076162|    0.824007|    0.012005|
|         545|   -5.687000|   -8.077059|    0.824008|    0.012005|
|         546|   -5.688541|   -8.077755|    0.824008|    0.012005|
|         547|   -5.689554|   -8.078276|    0.824008|    0.012005|
|         548|   -5.690235|   -8.078655|    0.824008|    0.012005|
|         549|   -5.690736|   -8.078932|    0.824008|    0.012005|
|         550|   -5.691150|   -8.079154|    0.824008|    0.012006|
|         551|   -5.691511|   -8.079369|    0.824008|    0.012006|
|         552|   -5.691805|   -8.079629|    0.824008|    0.012006|
|         553|   -5.691997|   -8.079986|    0.824008|    0.012006|
|         554|   -5.692050|   -8.080488|    0.824008|    0.012006|
|         555|   -5.691947|   -8.081184|    0.824008|    0.012006|
|         556|   -5.691698|   -8.082117|    0.824008|    0.012006|
|         557|   -5.691342|   -8.083325|    0.824007|    0.012006|
|         558|   -5.690938|   -8.084843|    0.824007|    0.012006|
|         559|   -5.690557|   -8.086697|    0.824007|    0.012006|
|         560|   -5.690275|   -8.088912|    0.824006|    0.012006|
|         561|   -5.690159|   -8.091501|    0.824006|    0.012006|
|         562|   -5.690266|   -8.094476|    0.824006|    0.012007|
|         563|   -5.690641|   -8.097838|    0.824005|    0.012007|
|         564|   -5.691320|   -8.101583|    0.824005|    0.012007|
|         565|   -5.692328|   -8.105703|    0.824004|    0.012006|
|         566|   -5.693686|   -8.110180|    0.824004|    0.012006|
|         567|   -5.695410|   -8.114992|    0.824003|    0.012006|
|         568|   -5.697515|   -8.120111|    0.824003|    0.012006|
|         569|   -5.700015|   -8.125501|    0.824002|    0.012006|
|         570|   -5.702921|   -8.131124|    0.824002|    0.012006|
|         571|   -5.706243|   -8.136933|    0.824001|    0.012006|
|         572|   -5.709989|   -8.142881|    0.824000|    0.012006|
|         573|   -5.714163|   -8.148915|    0.824000|    0.012006|
|         574|   -5.718766|   -8.154983|    0.823999|    0.012006|
|         575|   -5.723795|   -8.161033|    0.823999|    0.012006|
|         576|   -5.729243|   -8.167010|    0.823999|    0.012006|
|         577|   -5.735099|   -8.172864|    0.823998|    0.012005|
|         578|   -5.741345|   -8.178547|    0.823998|    0.012005|
|         579|   -5.747963|   -8.184016|    0.823997|    0.012005|
|         580|   -5.754927|   -8.189236|    0.823997|    0.012005|
|         581|   -5.762206|   -8.194180|    0.823997|    0.012005|
|         582|   -5.769763|   -8.198829|    0.823997|    0.012005|
|         583|   -5.777557|   -8.203173|    0.823996|    0.012004|
|         584|   -5.785540|   -8.207214|    0.823996|    0.012004|
|         585|   -5.793656|   -8.210959|    0.823996|    0.012004|
|         586|   -5.801847|   -8.214428|    0.823996|    0.012004|
|         587|   -5.810046|   -8.217645|    0.823996|    0.012004|
|         588|   -5.818182|   -8.220643|    0.823996|    0.012003|
|         589|   -5.826181|   -8.223457|    0.823996|    0.012003|
|         590|   -5.833965|   -8.226126|    0.823996|    0.012003|
|         591|   -5.841458|   -8.228691|    0.823996|    0.012003|
|         592|   -5.848582|   -8.231192|    0.823996|    0.012003|
|         593|   -5.855265|   -8.233668|    0.823996|    0.012002|
|         594|   -5.861441|   -8.236153|    0.823996|    0.012002|
|         595|   -5.867052|   -8.238680|    0.823996|    0.012002|
|         596|   -5.872052|   -8.241276|    0.823996|    0.012002|
|         597|   -5.876408|   -8.243964|    0.823997|    0.012001|
|         598|   -5.880102|   -8.246762|    0.823997|    0.012001|
|         599|   -5.883133|   -8.249680|    0.823997|    0.012001|
|         600|   -5.885513|   -8.252728|    0.823997|    0.012001|
|         601|   -5.887272|   -8.255906|    0.823997|    0.012001|
+-----------------------------------------------------------------------+
|Fixed CL Mode                           |Value                         |
+-----------------------------------------------------------------------+
|Current CL                              |0.823997                      |
|Target CL                               |0.824                         |
|Previous AOA                            |2.77878                       |
|Changed AoA by                          |1.39912e-05                   |
+-----------------------------------------------------------------------+
+----------------------------------------------------------------+
|  Inner_Iter|    rms[Rho]|     rms[nu]|          CL|          CD|
+----------------------------------------------------------------+
|         602|   -5.042839|   -8.255364|    0.823998|    0.012001|
|         603|   -5.405024|   -8.260489|    0.823998|    0.012000|
|         604|   -5.601932|   -8.264455|    0.823998|    0.012000|
|         605|   -5.656681|   -8.268321|    0.823998|    0.012000|
|         606|   -5.691853|   -8.272239|    0.823999|    0.012000|
|         607|   -5.732274|   -8.276223|    0.823999|    0.012000|
|         608|   -5.773747|   -8.280251|    0.823999|    0.011999|
|         609|   -5.807500|   -8.284295|    0.823999|    0.011999|
|         610|   -5.829348|   -8.288323|    0.824000|    0.011999|
|         611|   -5.841382|   -8.292304|    0.824000|    0.011999|
|         612|   -5.847413|   -8.296214|    0.824000|    0.011999|
|         613|   -5.849952|   -8.300032|    0.824001|    0.011999|
|         614|   -5.850475|   -8.303746|    0.824001|    0.011999|
|         615|   -5.850268|   -8.307346|    0.824001|    0.011999|
|         616|   -5.850494|   -8.310820|    0.824001|    0.011998|
|         617|   -5.851857|   -8.314155|    0.824002|    0.011998|
|         618|   -5.854434|   -8.317336|    0.824002|    0.011998|
|         619|   -5.857835|   -8.320351|    0.824002|    0.011998|
|         620|   -5.861545|   -8.323187|    0.824002|    0.011998|
|         621|   -5.865222|   -8.325833|    0.824002|    0.011998|
|         622|   -5.868807|   -8.328277|    0.824003|    0.011998|
|         623|   -5.872442|   -8.330505|    0.824003|    0.011998|
|         624|   -5.876318|   -8.332505|    0.824003|    0.011998|
|         625|   -5.880575|   -8.334265|    0.824003|    0.011998|
|         626|   -5.885269|   -8.335776|    0.824003|    0.011998|
|         627|   -5.890402|   -8.337037|    0.824003|    0.011998|
|         628|   -5.895957|   -8.338045|    0.824004|    0.011998|
|         629|   -5.901909|   -8.338789|    0.824004|    0.011998|
|         630|   -5.908230|   -8.339259|    0.824004|    0.011998|
|         631|   -5.914894|   -8.339451|    0.824004|    0.011999|
|         632|   -5.921880|   -8.339367|    0.824004|    0.011999|
|         633|   -5.929182|   -8.339013|    0.824004|    0.011999|
|         634|   -5.936810|   -8.338397|    0.824004|    0.011999|
|         635|   -5.944782|   -8.337535|    0.824004|    0.011999|
|         636|   -5.953118|   -8.336443|    0.824004|    0.011999|
|         637|   -5.961824|   -8.335143|    0.824004|    0.011999|
|         638|   -5.970882|   -8.333659|    0.824004|    0.011999|
|         639|   -5.980253|   -8.332019|    0.824004|    0.012000|
|         640|   -5.989867|   -8.330249|    0.824004|    0.012000|
|         641|   -5.999638|   -8.328379|    0.824004|    0.012000|
|         642|   -6.009465|   -8.326438|    0.824004|    0.012000|
|         643|   -6.019250|   -8.324456|    0.824004|    0.012000|
|         644|   -6.028911|   -8.322462|    0.824004|    0.012000|
|         645|   -6.038385|   -8.320482|    0.824004|    0.012001|
|         646|   -6.047634|   -8.318543|    0.824004|    0.012001|
|         647|   -6.056637|   -8.316671|    0.824004|    0.012001|
|         648|   -6.065379|   -8.314889|    0.824004|    0.012001|
|         649|   -6.073838|   -8.313218|    0.824004|    0.012001|
|         650|   -6.081981|   -8.311679|    0.824004|    0.012002|
|         651|   -6.089756|   -8.310289|    0.824004|    0.012002|
|         652|   -6.097098|   -8.309065|    0.824004|    0.012002|
|         653|   -6.103937|   -8.308023|    0.824004|    0.012002|
|         654|   -6.110206|   -8.307176|    0.824004|    0.012003|
|         655|   -6.115852|   -8.306537|    0.824004|    0.012003|
|         656|   -6.120841|   -8.306116|    0.824004|    0.012003|
|         657|   -6.125163|   -8.305924|    0.824004|    0.012003|
|         658|   -6.128833|   -8.305966|    0.824004|    0.012003|
|         659|   -6.131882|   -8.306249|    0.824004|    0.012004|
|         660|   -6.134360|   -8.306777|    0.824004|    0.012004|
|         661|   -6.136322|   -8.307554|    0.824004|    0.012004|
|         662|   -6.137833|   -8.308579|    0.824004|    0.012004|
|         663|   -6.138958|   -8.309853|    0.824004|    0.012004|
|         664|   -6.139765|   -8.311372|    0.824004|    0.012005|
|         665|   -6.140321|   -8.313132|    0.824004|    0.012005|
|         666|   -6.140694|   -8.315125|    0.824003|    0.012005|
|         667|   -6.140953|   -8.317344|    0.824003|    0.012005|
|         668|   -6.141163|   -8.319778|    0.824003|    0.012005|
|         669|   -6.141389|   -8.322416|    0.824003|    0.012005|
|         670|   -6.141695|   -8.325246|    0.824003|    0.012006|
|         671|   -6.142139|   -8.328256|    0.824003|    0.012006|
|         672|   -6.142777|   -8.331433|    0.824003|    0.012006|
|         673|   -6.143659|   -8.334764|    0.824003|    0.012006|
|         674|   -6.144829|   -8.338238|    0.824003|    0.012006|
|         675|   -6.146330|   -8.341841|    0.824002|    0.012006|
|         676|   -6.148197|   -8.345562|    0.824002|    0.012006|
|         677|   -6.150462|   -8.349394|    0.824002|    0.012006|
|         678|   -6.153151|   -8.353332|    0.824002|    0.012006|
|         679|   -6.156288|   -8.357374|    0.824002|    0.012006|
|         680|   -6.159891|   -8.361519|    0.824002|    0.012006|
|         681|   -6.163977|   -8.365767|    0.824001|    0.012006|
|         682|   -6.168555|   -8.370121|    0.824001|    0.012006|
|         683|   -6.173634|   -8.374589|    0.824001|    0.012006|
|         684|   -6.179216|   -8.379178|    0.824001|    0.012006|
|         685|   -6.185300|   -8.383897|    0.824000|    0.012006|
|         686|   -6.191881|   -8.388755|    0.824000|    0.012006|
|         687|   -6.198949|   -8.393759|    0.824000|    0.012006|
|         688|   -6.206489|   -8.398917|    0.823999|    0.012006|
|         689|   -6.214481|   -8.404232|    0.823999|    0.012006|
|         690|   -6.222898|   -8.409708|    0.823999|    0.012006|
|         691|   -6.231709|   -8.415343|    0.823999|    0.012006|
|         692|   -6.240876|   -8.421133|    0.823998|    0.012006|
|         693|   -6.250354|   -8.427070|    0.823998|    0.012006|
|         694|   -6.260093|   -8.433141|    0.823998|    0.012006|
|         695|   -6.270033|   -8.439328|    0.823997|    0.012005|
|         696|   -6.280110|   -8.445610|    0.823997|    0.012005|
|         697|   -6.290252|   -8.451961|    0.823997|    0.012005|
|         698|   -6.300382|   -8.458351|    0.823996|    0.012005|
|         699|   -6.310419|   -8.464747|    0.823996|    0.012005|
|         700|   -6.320277|   -8.471111|    0.823996|    0.012005|
|         701|   -6.329872|   -8.477407|    0.823996|    0.012005|
+-----------------------------------------------------------------------+
|Fixed CL Mode                           |Value                         |
+-----------------------------------------------------------------------+
|Current CL                              |0.823996                      |
|Target CL                               |0.824                         |
|Previous AOA                            |2.7788                        |
|Changed AoA by                          |2.01251e-05                   |
+-----------------------------------------------------------------------+
+----------------------------------------------------------------+
|  Inner_Iter|    rms[Rho]|     rms[nu]|          CL|          CD|
+----------------------------------------------------------------+
|         702|   -4.889295|   -8.463069|    0.823995|    0.012005|
|         703|   -5.272407|   -8.478745|    0.823995|    0.012004|
|         704|   -5.513632|   -8.487346|    0.823995|    0.012004|
|         705|   -5.591289|   -8.494438|    0.823995|    0.012004|
|         706|   -5.644144|   -8.500876|    0.823995|    0.012004|
|         707|   -5.712103|   -8.506838|    0.823994|    0.012004|
|         708|   -5.794975|   -8.512354|    0.823994|    0.012004|
|         709|   -5.879681|   -8.517425|    0.823994|    0.012003|
|         710|   -5.950422|   -8.522050|    0.823994|    0.012003|
|         711|   -6.000361|   -8.526214|    0.823994|    0.012003|
|         712|   -6.032220|   -8.529922|    0.823994|    0.012003|
|         713|   -6.050289|   -8.533216|    0.823994|    0.012003|
|         714|   -6.058340|   -8.536161|    0.823994|    0.012002|
|         715|   -6.061449|   -8.538816|    0.823994|    0.012002|
|         716|   -6.065147|   -8.541221|    0.823994|    0.012002|
|         717|   -6.073089|   -8.543410|    0.823994|    0.012002|
|         718|   -6.086022|   -8.545414|    0.823994|    0.012002|
|         719|   -6.102303|   -8.547271|    0.823993|    0.012001|
|         720|   -6.119245|   -8.549024|    0.823994|    0.012001|
|         721|   -6.134680|   -8.550711|    0.823994|    0.012001|
|         722|   -6.147944|   -8.552365|    0.823994|    0.012001|
|         723|   -6.159699|   -8.554017|    0.823994|    0.012001|
|         724|   -6.171001|   -8.555689|    0.823994|    0.012001|
|         725|   -6.182486|   -8.557406|    0.823994|    0.012001|
|         726|   -6.194145|   -8.559194|    0.823994|    0.012000|
|         727|   -6.205542|   -8.561081|    0.823994|    0.012000|
|         728|   -6.216133|   -8.563099|    0.823994|    0.012000|
|         729|   -6.225488|   -8.565267|    0.823994|    0.012000|
|         730|   -6.233366|   -8.567614|    0.823994|    0.012000|
|         731|   -6.239744|   -8.570165|    0.823994|    0.012000|
|         732|   -6.244837|   -8.572938|    0.823994|    0.012000|
|         733|   -6.249083|   -8.575950|    0.823995|    0.012000|
|         734|   -6.253063|   -8.579215|    0.823995|    0.012000|
|         735|   -6.257376|   -8.582742|    0.823995|    0.012000|
|         736|   -6.262505|   -8.586538|    0.823995|    0.012000|
|         737|   -6.268733|   -8.590605|    0.823995|    0.012000|
|         738|   -6.276109|   -8.594947|    0.823995|    0.012000|
|         739|   -6.284457|   -8.599561|    0.823996|    0.012000|
|         740|   -6.293412|   -8.604446|    0.823996|    0.012000|
|         741|   -6.302490|   -8.609598|    0.823996|    0.012000|
|         742|   -6.311188|   -8.615011|    0.823996|    0.012000|
|         743|   -6.319098|   -8.620678|    0.823997|    0.012000|
|         744|   -6.326015|   -8.626586|    0.823997|    0.012000|
|         745|   -6.331978|   -8.632723|    0.823997|    0.012000|
|         746|   -6.337243|   -8.639071|    0.823997|    0.012000|
|         747|   -6.342194|   -8.645606|    0.823997|    0.012000|
|         748|   -6.347218|   -8.652313|    0.823998|    0.012000|
|         749|   -6.352614|   -8.659162|    0.823998|    0.012000|
|         750|   -6.358528|   -8.666110|    0.823998|    0.012000|
|         751|   -6.364942|   -8.673109|    0.823998|    0.012000|
|         752|   -6.371701|   -8.680099|    0.823999|    0.012000|
|         753|   -6.378562|   -8.687019|    0.823999|    0.012000|
|         754|   -6.385253|   -8.693808|    0.823999|    0.012000|
|         755|   -6.391532|   -8.700402|    0.823999|    0.012000|
|         756|   -6.397231|   -8.706738|    0.824000|    0.012001|
|         757|   -6.402267|   -8.712755|    0.824000|    0.012001|
|         758|   -6.406647|   -8.718392|    0.824000|    0.012001|
|         759|   -6.410433|   -8.723594|    0.824000|    0.012001|
|         760|   -6.413721|   -8.728313|    0.824001|    0.012001|
|         761|   -6.416605|   -8.732508|    0.824001|    0.012001|
|         762|   -6.419158|   -8.736149|    0.824001|    0.012001|
|         763|   -6.421428|   -8.739217|    0.824001|    0.012002|
|         764|   -6.423435|   -8.741702|    0.824001|    0.012002|
|         765|   -6.425180|   -8.743607|    0.824002|    0.012002|
|         766|   -6.426655|   -8.744948|    0.824002|    0.012002|
|         767|   -6.427853|   -8.745749|    0.824002|    0.012002|
|         768|   -6.428772|   -8.746046|    0.824002|    0.012002|
|         769|   -6.429417|   -8.745883|    0.824002|    0.012002|
|         770|   -6.429801|   -8.745310|    0.824002|    0.012003|
|         771|   -6.429940|   -8.744385|    0.824003|    0.012003|
|         772|   -6.429854|   -8.743165|    0.824003|    0.012003|
|         773|   -6.429561|   -8.741712|    0.824003|    0.012003|
|         774|   -6.429078|   -8.740087|    0.824003|    0.012003|
|         775|   -6.428422|   -8.738351|    0.824003|    0.012003|
|         776|   -6.427606|   -8.736561|    0.824003|    0.012003|
|         777|   -6.426643|   -8.734772|    0.824003|    0.012004|
|         778|   -6.425547|   -8.733037|    0.824003|    0.012004|
|         779|   -6.424331|   -8.731403|    0.824003|    0.012004|
|         780|   -6.423011|   -8.729917|    0.824003|    0.012004|
|         781|   -6.421601|   -8.728616|    0.824003|    0.012004|
|         782|   -6.420115|   -8.727540|    0.824003|    0.012004|
|         783|   -6.418568|   -8.726720|    0.824003|    0.012004|
|         784|   -6.416974|   -8.726188|    0.824003|    0.012004|
|         785|   -6.415344|   -8.725969|    0.824003|    0.012005|
|         786|   -6.413689|   -8.726090|    0.824003|    0.012005|
|         787|   -6.412017|   -8.726571|    0.824002|    0.012005|
|         788|   -6.410335|   -8.727434|    0.824002|    0.012005|
|         789|   -6.408649|   -8.728694|    0.824002|    0.012005|
|         790|   -6.406961|   -8.730368|    0.824002|    0.012005|
|         791|   -6.405272|   -8.732469|    0.824002|    0.012005|
|         792|   -6.403584|   -8.735007|    0.824002|    0.012005|
|         793|   -6.401894|   -8.737990|    0.824001|    0.012005|
|         794|   -6.400201|   -8.741424|    0.824001|    0.012005|
|         795|   -6.398502|   -8.745310|    0.824001|    0.012005|
|         796|   -6.396793|   -8.749648|    0.824001|    0.012005|
|         797|   -6.395071|   -8.754430|    0.824000|    0.012005|
|         798|   -6.393334|   -8.759646|    0.824000|    0.012005|
|         799|   -6.391580|   -8.765280|    0.824000|    0.012005|
|         800|   -6.389806|   -8.771309|    0.824000|    0.012005|
|         801|   -6.388014|   -8.777704|    0.823999|    0.012005|
|         802|   -6.386204|   -8.784428|    0.823999|    0.012005|
|         803|   -6.384379|   -8.791436|    0.823999|    0.012005|
|         804|   -6.382545|   -8.798675|    0.823999|    0.012005|
|         805|   -6.380706|   -8.806081|    0.823998|    0.012005|
|         806|   -6.378872|   -8.813585|    0.823998|    0.012005|
|         807|   -6.377051|   -8.821107|    0.823998|    0.012005|
|         808|   -6.375254|   -8.828560|    0.823998|    0.012005|
|         809|   -6.373492|   -8.835855|    0.823997|    0.012005|
|         810|   -6.371779|   -8.842895|    0.823997|    0.012005|
|         811|   -6.370127|   -8.849586|    0.823997|    0.012005|
|         812|   -6.368551|   -8.855834|    0.823997|    0.012005|
|         813|   -6.367063|   -8.861554|    0.823996|    0.012004|
|         814|   -6.365677|   -8.866671|    0.823996|    0.012004|
|         815|   -6.364406|   -8.871123|    0.823996|    0.012004|
|         816|   -6.363263|   -8.874868|    0.823996|    0.012004|
|         817|   -6.362258|   -8.877884|    0.823996|    0.012004|
|         818|   -6.361401|   -8.880169|    0.823996|    0.012004|
|         819|   -6.360699|   -8.881744|    0.823995|    0.012004|
|         820|   -6.360159|   -8.882650|    0.823995|    0.012004|
|         821|   -6.359784|   -8.882946|    0.823995|    0.012004|
|         822|   -6.359576|   -8.882705|    0.823995|    0.012003|
|         823|   -6.359535|   -8.882012|    0.823995|    0.012003|
|         824|   -6.359657|   -8.880958|    0.823995|    0.012003|
|         825|   -6.359935|   -8.879638|    0.823995|    0.012003|
|         826|   -6.360360|   -8.878145|    0.823995|    0.012003|
|         827|   -6.360922|   -8.876570|    0.823995|    0.012003|
|         828|   -6.361605|   -8.874997|    0.823995|    0.012003|
|         829|   -6.362391|   -8.873504|    0.823994|    0.012003|
|         830|   -6.363262|   -8.872164|    0.823994|    0.012003|
|         831|   -6.364195|   -8.871032|    0.823994|    0.012002|
|         832|   -6.365165|   -8.870154|    0.823994|    0.012002|
|         833|   -6.366146|   -8.869568|    0.823995|    0.012002|
|         834|   -6.367111|   -8.869303|    0.823995|    0.012002|
|         835|   -6.368030|   -8.869378|    0.823995|    0.012002|
|         836|   -6.368875|   -8.869804|    0.823995|    0.012002|
|         837|   -6.369617|   -8.870572|    0.823995|    0.012002|
|         838|   -6.370226|   -8.871683|    0.823995|    0.012002|
|         839|   -6.370677|   -8.873131|    0.823995|    0.012002|
|         840|   -6.370943|   -8.874904|    0.823995|    0.012002|
|         841|   -6.371004|   -8.876985|    0.823995|    0.012001|
|         842|   -6.370841|   -8.879350|    0.823995|    0.012001|
|         843|   -6.370439|   -8.881970|    0.823995|    0.012001|
|         844|   -6.369787|   -8.884814|    0.823995|    0.012001|
|         845|   -6.368880|   -8.887851|    0.823996|    0.012001|
|         846|   -6.367718|   -8.891050|    0.823996|    0.012001|
|         847|   -6.366306|   -8.894379|    0.823996|    0.012001|
|         848|   -6.364652|   -8.897811|    0.823996|    0.012001|
|         849|   -6.362770|   -8.901321|    0.823996|    0.012001|
|         850|   -6.360680|   -8.904886|    0.823996|    0.012001|
|         851|   -6.358402|   -8.908489|    0.823996|    0.012001|
|         852|   -6.355963|   -8.912116|    0.823996|    0.012001|
|         853|   -6.353390|   -8.915757|    0.823997|    0.012001|
|         854|   -6.350714|   -8.919406|    0.823997|    0.012001|
|         855|   -6.347965|   -8.923060|    0.823997|    0.012001|
|         856|   -6.345175|   -8.926716|    0.823997|    0.012001|
|         857|   -6.342376|   -8.930377|    0.823997|    0.012001|
|         858|   -6.339599|   -8.934042|    0.823997|    0.012001|
|         859|   -6.336876|   -8.937711|    0.823997|    0.012001|
|         860|   -6.334235|   -8.941385|    0.823998|    0.012001|
|         861|   -6.331704|   -8.945060|    0.823998|    0.012001|
|         862|   -6.329309|   -8.948730|    0.823998|    0.012001|
|         863|   -6.327074|   -8.952385|    0.823998|    0.012001|
|         864|   -6.325021|   -8.956015|    0.823998|    0.012001|
|         865|   -6.323169|   -8.959601|    0.823998|    0.012001|
|         866|   -6.321536|   -8.963124|    0.823998|    0.012001|
|         867|   -6.320137|   -8.966562|    0.823998|    0.012001|
|         868|   -6.318984|   -8.969889|    0.823998|    0.012001|
|         869|   -6.318089|   -8.973078|    0.823999|    0.012001|
|         870|   -6.317460|   -8.976102|    0.823999|    0.012001|
|         871|   -6.317103|   -8.978935|    0.823999|    0.012001|
|         872|   -6.317022|   -8.981550|    0.823999|    0.012001|
|         873|   -6.317221|   -8.983925|    0.823999|    0.012001|
|         874|   -6.317698|   -8.986042|    0.823999|    0.012001|
|         875|   -6.318453|   -8.987887|    0.823999|    0.012001|
|         876|   -6.319482|   -8.989452|    0.823999|    0.012001|
|         877|   -6.320779|   -8.990735|    0.823999|    0.012002|
|         878|   -6.322337|   -8.991741|    0.823999|    0.012002|
|         879|   -6.324146|   -8.992480|    0.823999|    0.012002|
|         880|   -6.326196|   -8.992970|    0.823999|    0.012002|
|         881|   -6.328472|   -8.993238|    0.823999|    0.012002|
|         882|   -6.330960|   -8.993326|    0.823999|    0.012002|
|         883|   -6.333643|   -8.993261|    0.823999|    0.012002|
|         884|   -6.336501|   -8.993078|    0.823999|    0.012002|
|         885|   -6.339514|   -8.992810|    0.823999|    0.012002|
|         886|   -6.342658|   -8.992498|    0.823999|    0.012002|
|         887|   -6.345909|   -8.992183|    0.823999|    0.012002|
|         888|   -6.349240|   -8.991908|    0.823999|    0.012002|
|         889|   -6.352623|   -8.991718|    0.823999|    0.012002|
|         890|   -6.356029|   -8.991660|    0.823999|    0.012003|
|         891|   -6.359426|   -8.991776|    0.823999|    0.012003|
|         892|   -6.362782|   -8.992108|    0.823999|    0.012003|
|         893|   -6.366064|   -8.992694|    0.823999|    0.012003|
|         894|   -6.369241|   -8.993574|    0.823999|    0.012003|
|         895|   -6.372278|   -8.994782|    0.823999|    0.012003|
|         896|   -6.375145|   -8.996350|    0.823999|    0.012003|
|         897|   -6.377811|   -8.998306|    0.823999|    0.012003|
|         898|   -6.380247|   -9.000670|    0.823999|    0.012003|
|         899|   -6.382426|   -9.003459|    0.823999|    0.012003|
|         900|   -6.384327|   -9.006684|    0.823999|    0.012003|
|         901|   -6.385930|   -9.010348|    0.823999|    0.012003|
+-----------------------------------------------------------------------+
|Fixed CL Mode                           |Value                         |
+-----------------------------------------------------------------------+
|Current CL                              |0.823999                      |
|Target CL                               |0.824                         |
|Previous AOA                            |2.77882                       |
|Changed AoA by                          |6.30854e-06                   |
+-----------------------------------------------------------------------+
+----------------------------------------------------------------+
|  Inner_Iter|    rms[Rho]|     rms[nu]|          CL|          CD|
+----------------------------------------------------------------+
|         902|   -5.390848|   -8.989474|    0.823999|    0.012003|
|         903|   -5.761230|   -9.004951|    0.823998|    0.012003|
|         904|   -5.972623|   -9.013095|    0.823998|    0.012004|
|         905|   -6.034183|   -9.020157|    0.823998|    0.012004|
|         906|   -6.075854|   -9.027104|    0.823998|    0.012004|
|         907|   -6.126842|   -9.034143|    0.823998|    0.012004|
[...]
|        5298|   -6.041988|   -7.946094|    0.824237|    0.012007|
|        5299|   -6.048713|   -7.949795|    0.824237|    0.012007|
|        5300|   -6.055031|   -7.953559|    0.824237|    0.012007|
|        5301|   -6.060905|   -7.957406|    0.824237|    0.012006|
|        5302|   -6.066309|   -7.961348|    0.824238|    0.012006|
|        5303|   -6.071230|   -7.965396|    0.824238|    0.012006|
|        5304|   -6.075666|   -7.969560|    0.824238|    0.012006|
|        5305|   -6.079627|   -7.973844|    0.824238|    0.012006|
|        5306|   -6.083137|   -7.978250|    0.824238|    0.012006|
|        5307|   -6.086227|   -7.982781|    0.824238|    0.012006|
|        5308|   -6.088941|   -7.987437|    0.824238|    0.012006|
|        5309|   -6.091329|   -7.992216|    0.824238|    0.012006|
|        5310|   -6.093443|   -7.997118|    0.824238|    0.012006|
|        5311|   -6.095339|   -8.002142|    0.824238|    0.012006|
|        5312|   -6.097077|   -8.007286|    0.824239|    0.012006|
|        5313|   -6.098714|   -8.012553|    0.824239|    0.012006|
|        5314|   -6.100307|   -8.017941|    0.824239|    0.012006|
|        5315|   -6.101908|   -8.023449|    0.824239|    0.012006|
|        5316|   -6.103565|   -8.029079|    0.824239|    0.012006|
|        5317|   -6.105323|   -8.034832|    0.824239|    0.012006|
|        5318|   -6.107219|   -8.040711|    0.824239|    0.012006|
|        5319|   -6.109285|   -8.046718|    0.824239|    0.012006|
|        5320|   -6.111545|   -8.052854|    0.824240|    0.012006|
|        5321|   -6.114020|   -8.059120|    0.824240|    0.012006|
|        5322|   -6.116720|   -8.065517|    0.824240|    0.012007|
|        5323|   -6.119650|   -8.072048|    0.824240|    0.012007|
|        5324|   -6.122809|   -8.078710|    0.824240|    0.012007|
|        5325|   -6.126188|   -8.085499|    0.824240|    0.012007|
|        5326|   -6.129773|   -8.092410|    0.824240|    0.012007|
|        5327|   -6.133543|   -8.099435|    0.824241|    0.012007|
|        5328|   -6.137473|   -8.106566|    0.824241|    0.012007|
|        5329|   -6.141530|   -8.113792|    0.824241|    0.012007|
|        5330|   -6.145681|   -8.121104|    0.824241|    0.012007|
|        5331|   -6.149886|   -8.128487|    0.824241|    0.012007|
|        5332|   -6.154104|   -8.135929|    0.824241|    0.012007|
|        5333|   -6.158292|   -8.143417|    0.824242|    0.012007|
|        5334|   -6.162408|   -8.150940|    0.824242|    0.012008|
|        5335|   -6.166410|   -8.158486|    0.824242|    0.012008|
|        5336|   -6.170259|   -8.166049|    0.824242|    0.012008|
|        5337|   -6.173920|   -8.173618|    0.824242|    0.012008|
|        5338|   -6.177364|   -8.181189|    0.824242|    0.012008|
|        5339|   -6.180568|   -8.188756|    0.824242|    0.012008|
|        5340|   -6.183516|   -8.196314|    0.824242|    0.012008|
|        5341|   -6.186200|   -8.203863|    0.824243|    0.012008|
|        5342|   -6.188622|   -8.211403|    0.824243|    0.012008|
|        5343|   -6.190790|   -8.218934|    0.824243|    0.012008|
|        5344|   -6.192721|   -8.226461|    0.824243|    0.012008|
|        5345|   -6.194440|   -8.233987|    0.824243|    0.012008|
|        5346|   -6.195978|   -8.241518|    0.824243|    0.012008|
|        5347|   -6.197371|   -8.249061|    0.824243|    0.012009|
|        5348|   -6.198658|   -8.256622|    0.824243|    0.012009|
|        5349|   -6.199882|   -8.264210|    0.824243|    0.012009|
|        5350|   -6.201088|   -8.271833|    0.824244|    0.012009|
|        5351|   -6.202319|   -8.279498|    0.824244|    0.012009|
|        5352|   -6.203618|   -8.287213|    0.824244|    0.012009|
|        5353|   -6.205027|   -8.294987|    0.824244|    0.012009|
|        5354|   -6.206585|   -8.302826|    0.824244|    0.012009|
|        5355|   -6.208328|   -8.310737|    0.824244|    0.012009|
|        5356|   -6.210286|   -8.318724|    0.824244|    0.012009|
|        5357|   -6.212487|   -8.326791|    0.824244|    0.012009|
|        5358|   -6.214956|   -8.334943|    0.824244|    0.012009|
|        5359|   -6.217709|   -8.343179|    0.824244|    0.012009|
|        5360|   -6.220761|   -8.351500|    0.824244|    0.012009|
|        5361|   -6.224120|   -8.359904|    0.824244|    0.012009|
|        5362|   -6.227791|   -8.368389|    0.824244|    0.012009|
|        5363|   -6.231771|   -8.376949|    0.824244|    0.012009|
|        5364|   -6.236056|   -8.385578|    0.824244|    0.012009|
|        5365|   -6.240633|   -8.394269|    0.824244|    0.012009|
|        5366|   -6.245487|   -8.403011|    0.824244|    0.012009|
|        5367|   -6.250597|   -8.411795|    0.824244|    0.012009|
|        5368|   -6.255937|   -8.420608|    0.824244|    0.012009|
|        5369|   -6.261477|   -8.429438|    0.824244|    0.012009|
|        5370|   -6.267182|   -8.438271|    0.824244|    0.012009|
|        5371|   -6.273015|   -8.447091|    0.824244|    0.012009|
|        5372|   -6.278932|   -8.455885|    0.824244|    0.012009|
|        5373|   -6.284888|   -8.464638|    0.824244|    0.012009|
|        5374|   -6.290838|   -8.473333|    0.824244|    0.012009|
|        5375|   -6.296731|   -8.481958|    0.824244|    0.012009|
|        5376|   -6.302520|   -8.490497|    0.824244|    0.012008|
|        5377|   -6.308155|   -8.498939|    0.824244|    0.012008|
|        5378|   -6.313590|   -8.507272|    0.824244|    0.012008|
|        5379|   -6.318782|   -8.515485|    0.824244|    0.012008|
|        5380|   -6.323692|   -8.523568|    0.824244|    0.012008|
|        5381|   -6.328285|   -8.531516|    0.824244|    0.012008|
|        5382|   -6.332533|   -8.539319|    0.824244|    0.012008|
|        5383|   -6.336416|   -8.546974|    0.824244|    0.012008|
|        5384|   -6.339920|   -8.554476|    0.824244|    0.012008|
|        5385|   -6.343038|   -8.561819|    0.824244|    0.012008|
|        5386|   -6.345770|   -8.568999|    0.824244|    0.012008|
|        5387|   -6.348125|   -8.576008|    0.824244|    0.012008|
|        5388|   -6.350116|   -8.582841|    0.824244|    0.012007|
|        5389|   -6.351760|   -8.589489|    0.824244|    0.012007|
|        5390|   -6.353081|   -8.595940|    0.824244|    0.012007|
|        5391|   -6.354104|   -8.602181|    0.824244|    0.012007|
|        5392|   -6.354855|   -8.608197|    0.824244|    0.012007|
|        5393|   -6.355363|   -8.613968|    0.824245|    0.012007|
|        5394|   -6.355656|   -8.619474|    0.824245|    0.012007|
|        5395|   -6.355760|   -8.624689|    0.824245|    0.012007|
|        5396|   -6.355699|   -8.629591|    0.824245|    0.012007|
|        5397|   -6.355498|   -8.634152|    0.824245|    0.012007|
|        5398|   -6.355177|   -8.638347|    0.824245|    0.012006|
|        5399|   -6.354753|   -8.642152|    0.824245|    0.012006|
|        5400|   -6.354242|   -8.645545|    0.824246|    0.012006|
|        5401|   -6.353658|   -8.648509|    0.824246|    0.012006|
|        5402|   -6.353010|   -8.651032|    0.824246|    0.012006|
|        5403|   -6.352308|   -8.653109|    0.824246|    0.012006|
|        5404|   -6.351558|   -8.654740|    0.824246|    0.012006|
|        5405|   -6.350766|   -8.655935|    0.824246|    0.012006|
|        5406|   -6.349935|   -8.656712|    0.824247|    0.012006|
|        5407|   -6.349069|   -8.657093|    0.824247|    0.012006|
|        5408|   -6.348171|   -8.657109|    0.824247|    0.012006|
|        5409|   -6.347244|   -8.656796|    0.824247|    0.012005|
|        5410|   -6.346288|   -8.656196|    0.824247|    0.012005|
|        5411|   -6.345307|   -8.655354|    0.824248|    0.012005|
|        5412|   -6.344303|   -8.654318|    0.824248|    0.012005|
|        5413|   -6.343280|   -8.653133|    0.824248|    0.012005|
|        5414|   -6.342240|   -8.651845|    0.824248|    0.012005|
|        5415|   -6.341188|   -8.650497|    0.824248|    0.012005|
|        5416|   -6.340128|   -8.649129|    0.824248|    0.012005|
|        5417|   -6.339066|   -8.647777|    0.824249|    0.012005|
|        5418|   -6.338007|   -8.646473|    0.824249|    0.012005|
|        5419|   -6.336958|   -8.645243|    0.824249|    0.012005|
|        5420|   -6.335927|   -8.644111|    0.824249|    0.012005|
|        5421|   -6.334921|   -8.643093|    0.824249|    0.012005|
|        5422|   -6.333950|   -8.642201|    0.824249|    0.012005|
|        5423|   -6.333023|   -8.641443|    0.824250|    0.012005|
|        5424|   -6.332150|   -8.640824|    0.824250|    0.012005|
|        5425|   -6.331342|   -8.640343|    0.824250|    0.012005|
|        5426|   -6.330612|   -8.639998|    0.824250|    0.012005|
|        5427|   -6.329972|   -8.639785|    0.824250|    0.012005|
|        5428|   -6.329435|   -8.639695|    0.824250|    0.012005|
|        5429|   -6.329014|   -8.639723|    0.824250|    0.012005|
|        5430|   -6.328724|   -8.639859|    0.824250|    0.012005|
|        5431|   -6.328579|   -8.640095|    0.824251|    0.012005|
|        5432|   -6.328594|   -8.640424|    0.824251|    0.012005|
|        5433|   -6.328783|   -8.640839|    0.824251|    0.012005|
|        5434|   -6.329160|   -8.641333|    0.824251|    0.012005|
|        5435|   -6.329740|   -8.641904|    0.824251|    0.012005|
|        5436|   -6.330536|   -8.642548|    0.824251|    0.012005|
|        5437|   -6.331560|   -8.643263|    0.824251|    0.012005|
|        5438|   -6.332825|   -8.644050|    0.824251|    0.012005|
|        5439|   -6.334340|   -8.644911|    0.824251|    0.012005|
|        5440|   -6.336115|   -8.645849|    0.824251|    0.012005|
|        5441|   -6.338156|   -8.646867|    0.824251|    0.012005|
|        5442|   -6.340470|   -8.647970|    0.824251|    0.012005|
|        5443|   -6.343058|   -8.649163|    0.824251|    0.012005|
|        5444|   -6.345923|   -8.650453|    0.824251|    0.012005|
|        5445|   -6.349061|   -8.651843|    0.824251|    0.012005|
|        5446|   -6.352468|   -8.653341|    0.824251|    0.012005|
|        5447|   -6.356137|   -8.654951|    0.824252|    0.012005|
|        5448|   -6.360056|   -8.656676|    0.824252|    0.012005|
|        5449|   -6.364211|   -8.658519|    0.824252|    0.012005|
|        5450|   -6.368584|   -8.660485|    0.824252|    0.012005|
|        5451|   -6.373154|   -8.662572|    0.824252|    0.012006|
|        5452|   -6.377896|   -8.664783|    0.824252|    0.012006|
|        5453|   -6.382781|   -8.667115|    0.824252|    0.012006|
|        5454|   -6.387777|   -8.669568|    0.824251|    0.012006|
|        5455|   -6.392849|   -8.672139|    0.824251|    0.012006|
|        5456|   -6.397959|   -8.674824|    0.824251|    0.012006|
|        5457|   -6.403066|   -8.677619|    0.824251|    0.012006|
|        5458|   -6.408126|   -8.680518|    0.824251|    0.012006|
|        5459|   -6.413095|   -8.683516|    0.824251|    0.012006|
|        5460|   -6.417928|   -8.686607|    0.824251|    0.012006|
|        5461|   -6.422579|   -8.689784|    0.824251|    0.012006|
|        5462|   -6.427006|   -8.693040|    0.824251|    0.012006|
|        5463|   -6.431167|   -8.696368|    0.824251|    0.012007|
|        5464|   -6.435022|   -8.699759|    0.824251|    0.012007|
|        5465|   -6.438539|   -8.703206|    0.824251|    0.012007|
|        5466|   -6.441688|   -8.706702|    0.824251|    0.012007|
|        5467|   -6.444448|   -8.710237|    0.824251|    0.012007|
|        5468|   -6.446801|   -8.713804|    0.824251|    0.012007|
|        5469|   -6.448741|   -8.717392|    0.824251|    0.012007|
|        5470|   -6.450266|   -8.720994|    0.824250|    0.012007|
|        5471|   -6.451382|   -8.724600|    0.824250|    0.012007|
|        5472|   -6.452104|   -8.728200|    0.824250|    0.012007|
|        5473|   -6.452450|   -8.731783|    0.824250|    0.012007|
|        5474|   -6.452446|   -8.735339|    0.824250|    0.012007|
|        5475|   -6.452124|   -8.738857|    0.824250|    0.012007|
|        5476|   -6.451517|   -8.742325|    0.824250|    0.012007|
|        5477|   -6.450662|   -8.745732|    0.824250|    0.012007|
|        5478|   -6.449599|   -8.749065|    0.824250|    0.012007|
|        5479|   -6.448368|   -8.752312|    0.824249|    0.012007|
|        5480|   -6.447008|   -8.755460|    0.824249|    0.012007|
|        5481|   -6.445559|   -8.758497|    0.824249|    0.012008|
|        5482|   -6.444059|   -8.761410|    0.824249|    0.012008|
|        5483|   -6.442544|   -8.764186|    0.824249|    0.012008|
|        5484|   -6.441049|   -8.766816|    0.824249|    0.012008|
|        5485|   -6.439604|   -8.769289|    0.824249|    0.012008|
|        5486|   -6.438240|   -8.771595|    0.824249|    0.012008|
|        5487|   -6.436981|   -8.773727|    0.824248|    0.012008|
|        5488|   -6.435851|   -8.775679|    0.824248|    0.012008|
|        5489|   -6.434872|   -8.777447|    0.824248|    0.012008|
|        5490|   -6.434060|   -8.779028|    0.824248|    0.012008|
|        5491|   -6.433432|   -8.780422|    0.824248|    0.012008|
|        5492|   -6.432999|   -8.781630|    0.824248|    0.012008|
|        5493|   -6.432773|   -8.782656|    0.824248|    0.012008|
|        5494|   -6.432762|   -8.783504|    0.824248|    0.012008|
|        5495|   -6.432972|   -8.784180|    0.824248|    0.012007|
|        5496|   -6.433407|   -8.784692|    0.824248|    0.012007|
|        5497|   -6.434071|   -8.785048|    0.824248|    0.012007|
|        5498|   -6.434965|   -8.785257|    0.824248|    0.012007|
|        5499|   -6.436087|   -8.785330|    0.824248|    0.011993|
+-----------------------------------------------------------------------+
|Fixed CL Mode (Finite Difference)       |Value                         |
+-----------------------------------------------------------------------+
|Delta CL / Delta AoA                    |0.247741                      |
|Delta CD / Delta CL                     |0.018787                      |
|Delta CMz / Delta CL                    |0.00854699                    |
+-----------------------------------------------------------------------+
Writing Flow Meta-Data file: flow.meta

----------------------------- Solver Exit -------------------------------

Maximum number of iterations reached (ITER = 5500) before convergence.
+-----------------------------------------------------------------------+
|      Convergence Field     |     Value    |   Criterion  |  Converged |
+-----------------------------------------------------------------------+
|                    rms[Rho]|      -6.43609|         < -12|          No|
+-----------------------------------------------------------------------+
-------------------------------------------------------------------------

--------------------------- Finalizing Solver ---------------------------
Deleted CNumerics container.
Deleted CIntegration container.
Deleted CSolver container.
Deleted CIteration container.
Deleted CInterface container.
Deleted CGeometry container.
Deleted CFreeFormDefBox class.
Deleted CSurfaceMovement class.
Deleted CVolumetricMovement class.
Deleted CConfig container.
Deleted nInst container.
Deleted COutput class.
-------------------------------------------------------------------------

------------------------- Exit Success (SU2_CFD) ------------------------


-------------------------------------------------------------------------
|    ___ _   _ ___                                                      |
|   / __| | | |_  )   Release 8.0.0 "Harrier"                           |
|   \__ \ |_| |/ /                                                      |
|   |___/\___//___|   Suite (Solution Exporting Code)                   |
|                                                                       |
-------------------------------------------------------------------------
| SU2 Project Website: https://su2code.github.io                        |
|                                                                       |
| The SU2 Project is maintained by the SU2 Foundation                   |
| (http://su2foundation.org)                                            |
-------------------------------------------------------------------------
| Copyright 2012-2023, SU2 Contributors                                 |
|                                                                       |
| SU2 is free software; you can redistribute it and/or                  |
| modify it under the terms of the GNU Lesser General Public            |
| License as published by the Free Software Foundation; either          |
| version 2.1 of the License, or (at your option) any later version.    |
|                                                                       |
| SU2 is distributed in the hope that it will be useful,                |
| but WITHOUT ANY WARRANTY; without even the implied warranty of        |
| MERCHANTABILITY or FITNESS FOR A PARTICULAR PURPOSE. See the GNU      |
| Lesser General Public License for more details.                       |
|                                                                       |
| You should have received a copy of the GNU Lesser General Public      |
| License along with SU2. If not, see <http://www.gnu.org/licenses/>.   |
-------------------------------------------------------------------------

----------------- Physical Case Definition ( Zone 0 ) -------------------
Input mesh file name: mesh_RAE2822_turb_deform.su2

-------------------- Output Information ( Zone 0 ) ----------------------
The tabular file format is CSV (.csv).
Flow variables file name: flow.

------------- Config File Boundary Information ( Zone 0 ) ---------------
+-----------------------------------------------------------------------+
|                        Marker Type|                        Marker Name|
+-----------------------------------------------------------------------+
|                          Far-field|                           FARFIELD|
+-----------------------------------------------------------------------+
|                     Heat flux wall|                            AIRFOIL|
+-----------------------------------------------------------------------+
Two dimensional problem.
13937 grid points before partitioning.
22842 volume elements before partitioning.
2 surface markers.
192 boundary elements in index 0 (Marker = AIRFOIL).
40 boundary elements in index 1 (Marker = FARFIELD).
Executing the partitioning functions.
Building the graph adjacency structure.
Calling ParMETIS... graph partitioning complete (831 edge cuts).
Distributing ParMETIS coloring.
Rebalancing vertices.
Rebalancing volume element connectivity.
Rebalancing markers and surface elements.
14875 vertices including ghost points. 
23674 interior elements including halo cells. 
18780 triangles.
4894 quadrilaterals.
Establishing MPI communication patterns.
Identify vertices.
Storing a mapping from global to local point index.

------------------------- Solution Postprocessing -----------------------
Reading and storing the solution from restart_flow.
Volume output fields: COORDINATES, SOLUTION
  Info: Ignoring the following screen output fields:
  RMS_DENSITY, RMS_NU_TILDE, LIFT, DRAG
Screen output fields: INNER_ITER
  Info: Ignoring the following history output groups:
  RMS_RES, AERO_COEFF
History output group(s): ITER
Warning: No (valid) fields chosen for convergence monitoring. Convergence monitoring inactive.
Warning: No (valid) fields chosen for time convergence monitoring. Time convergence monitoring inactive.
|Paraview                           |flow.vtu                           |
|Paraview surface                   |surface_flow.vtu                   |
|CSV file                           |surface_flow.csv                   |

------------------------- Finalize Solver -------------------------
Deleted CGeometry container.
Deleted CSolver class.
Deleted CConfig container.
Deleted COutput class.

Completed in 0.020205 seconds on 6 cores.

------------------------- Exit Success (SU2_SOL) ------------------------

