
-------------------------------------------------------------------------
|    ___ _   _ ___                                                      |
|   / __| | | |_  )   Release 8.0.0 "Harrier"                           |
|   \__ \ |_| |/ /                                                      |
|   |___/\___//___|   Suite (Computational Fluid Dynamics Code)         |
|                                                                       |
-------------------------------------------------------------------------
| SU2 Project Website: https://su2code.github.io                        |
|                                                                       |
| The SU2 Project is maintained by the SU2 Foundation                   |
| (http://su2foundation.org)                                            |
-------------------------------------------------------------------------
| Copyright 2012-2023, SU2 Contributors                                 |
|                                                                       |
| SU2 is free software; you can redistribute it and/or                  |
| modify it under the terms of the GNU Lesser General Public            |
| License as published by the Free Software Foundation; either          |
| version 2.1 of the License, or (at your option) any later version.    |
|                                                                       |
| SU2 is distributed in the hope that it will be useful,                |
| but WITHOUT ANY WARRANTY; without even the implied warranty of        |
| MERCHANTABILITY or FITNESS FOR A PARTICULAR PURPOSE. See the GNU      |
| Lesser General Public License for more details.                       |
|                                                                       |
| You should have received a copy of the GNU Lesser General Public      |
| License along with SU2. If not, see <http://www.gnu.org/licenses/>.   |
-------------------------------------------------------------------------

Parsing config file for zone 0

----------------- Physical Case Definition ( Zone 0 ) -------------------
Compressible RANS equations.
Turbulence model: Spalart-Allmaras-noft2
Hybrid RANS/LES: No Hybrid RANS/LES
Mach number: 0.734.
Angle of attack (AoA): 2.31 deg, and angle of sideslip (AoS): 0 deg.
Reynolds number: 6.5e+06. Reference length 1.
No restart solution, use the values at infinity (freestream).
Dimensional simulation.
The reference area is 1 m^2.
The semi-span will be computed using the max y(3D) value.
The reference length is 1 m.
Reference origin for moment evaluation is (0.25, 0, 0).
Surface(s) where the force coefficients are evaluated: AIRFOIL.

Surface(s) plotted in the output file: AIRFOIL.
Input mesh file name: Mesh.su2

--------------- Space Numerical Integration ( Zone 0 ) ------------------
Roe (with entropy fix = 0.001) solver for the flow inviscid terms.
Standard Roe without low-dissipation function.
Second order integration in space, with slope limiter.
Venkatakrishnan slope-limiting method, with constant: 0.03.
The reference element size is: 1. 
Scalar upwind solver for the turbulence model.
First order integration in space.
Average of gradients with correction (viscous flow terms).
Average of gradients with correction (viscous turbulence terms).
Gradient for upwind reconstruction: inverse-distance weighted Least-Squares.
Gradient for viscous and source terms: inverse-distance weighted Least-Squares.

--------------- Time Numerical Integration  ( Zone 0 ) ------------------
Local time stepping (steady state simulation).
Euler implicit method for the flow equations.
FGMRES is used for solving the linear system.
Using a ILU(0) preconditioning.
Convergence criteria of the linear solver: 1e-06.
Max number of linear iterations: 10.
CFL adaptation. Factor down: 0.5, factor up: 1.1,
                lower limit: 1, upper limit: 1000,
                acceptable linear residual: 0.001.
Courant-Friedrichs-Lewy number:        2
Euler implicit time integration for the turbulence model.

------------------ Convergence Criteria  ( Zone 0 ) ---------------------
Maximum number of solver subiterations: 5000.
Begin convergence monitoring at iteration 10.
Residual minimum value: 1e-14.
Cauchy series min. value: 1e-06.
Number of Cauchy elements: 100.
Begin windowed time average at iteration 0.

-------------------- Output Information ( Zone 0 ) ----------------------
File writing frequency: 
+------------------------------------+
|                     File| Frequency|
+------------------------------------+
|                  RESTART|       500|
|                 PARAVIEW|       500|
|         SURFACE_PARAVIEW|       500|
+------------------------------------+
Writing the convergence history file every 1 inner iterations.
Writing the screen convergence history every 1 inner iterations.
The tabular file format is CSV (.csv).
Convergence history file name: historySecond.
Forces breakdown file name: forces_breakdown.dat.
Surface file name: surface_flow.
Volume file name: flow.
Restart file name: restart_flow.dat.

------------- Config File Boundary Information ( Zone 0 ) ---------------
+-----------------------------------------------------------------------+
|                        Marker Type|                        Marker Name|
+-----------------------------------------------------------------------+
|                          Far-field|                           FARFIELD|
+-----------------------------------------------------------------------+
|                     Heat flux wall|                            AIRFOIL|
+-----------------------------------------------------------------------+

-------------------- Output Preprocessing ( Zone 0 ) --------------------

WARNING: SURFACE_PRESSURE_DROP can only be computed for at least 2 surfaces (outlet, inlet, ...)

Screen output fields: INNER_ITER, WALL_TIME, RMS_DENSITY, LIFT, DRAG, MIN_CFL, MAX_CFL, AVG_CFL
  Info: Ignoring the following history output groups:
  RESIDUALS, CFL
History output group(s): INNER_ITER, LIFT, DRAG
Convergence field(s): LIFT
Warning: No (valid) fields chosen for time convergence monitoring. Time convergence monitoring inactive.
  Info: Ignoring the following volume output fields/groups:
  RESIDUALS
Volume output fields: SOLUTION, PRIMITIVE, GRADIENTS, HESSIANS, EIGENVALUES, WALL_DISTANCE, COORDINATES

------------------- Geometry Preprocessing ( Zone 0 ) -------------------
Two dimensional problem.
53745 grid points before partitioning.
86572 volume elements before partitioning.
2 surface markers.
503 boundary elements in index 0 (Marker = AIRFOIL).
40 boundary elements in index 1 (Marker = FARFIELD).
Executing the partitioning functions.
Building the graph adjacency structure.
Calling ParMETIS... graph partitioning complete (1354 edge cuts).
Distributing ParMETIS coloring.
Rebalancing vertices.
Rebalancing volume element connectivity.
Rebalancing markers and surface elements.
55360 vertices including ghost points. 
87926 interior elements including halo cells. 
67298 triangles.
20628 quadrilaterals.
Establishing MPI communication patterns.
Setting point connectivity.
Renumbering points (Reverse Cuthill McKee Ordering).
Recomputing point connectivity.
Setting element connectivity.
Checking the numerical grid orientation.
All volume elements are correctly orientend.
All surface elements are correctly orientend.
Identifying edges and vertices.
Setting the control volume structure.
Area of the computational grid: 31300.7.
Searching for the closest normal neighbors to the surfaces.
Storing a mapping from global to local point index.
Compute the surface curvature.
Max K: 13805.5. Mean K: 58.7759. Standard deviation K: 806.003.
Checking for periodicity.
Computing mesh quality statistics for the dual control volumes.
+--------------------------------------------------------------+
|           Mesh Quality Metric|        Minimum|        Maximum|
+--------------------------------------------------------------+
|    Orthogonality Angle (deg.)|        54.7808|             90|
|     CV Face Area Aspect Ratio|        1.00245|        7393.81|
|           CV Sub-Volume Ratio|              1|        11.4204|
+--------------------------------------------------------------+
Finding max control volume width.
Communicating number of neighbors.
Wetted area = 2.0206 m.
Area projection in the x-plane = 0.123264 m, y-plane = 0.993653 m.
Max. coordinate in the x-direction = 0.993668 m, y-direction = 0.0643462 m.
Min. coordinate in the x-direction = 0 m, y-direction = -0.0577863 m.
Computing wall distances.

-------------------- Solver Preprocessing ( Zone 0 ) --------------------
Viscous flow: Computing pressure using the ideal gas law
based on the free-stream temperature and a density computed
from the Reynolds number.
Force coefficients computed using free-stream values.

-- Models:
+------------------------------------------------------------------------------+
|          Viscosity Model|        Conductivity Model|              Fluid Model|
+------------------------------------------------------------------------------+
|               SUTHERLAND|          CONSTANT_PRANDTL|             STANDARD_AIR|
+------------------------------------------------------------------------------+
-- Fluid properties:
+------------------------------------------------------------------------------+
|                  Name|    Dim. value|    Ref. value|      Unit|Non-dim. value|
+------------------------------------------------------------------------------+
|        Ref. Viscosity|     1.716e-05|             1|   N.s/m^2|     1.716e-05|
|      Sutherland Temp.|        273.15|             1|         K|        273.15|
|     Sutherland Const.|         110.4|             1|         K|         110.4|
+------------------------------------------------------------------------------+
|        Prandtl (Lam.)|             -|             -|         -|          0.71|
|       Prandtl (Turb.)|             -|             -|         -|           0.9|
+------------------------------------------------------------------------------+
|          Gas Constant|       287.058|             1|  N.m/kg.K|       287.058|
|      Spec. Heat Ratio|             -|             -|         -|           1.4|
+------------------------------------------------------------------------------+
-- Initial and free-stream conditions:
+------------------------------------------------------------------------------+
|                  Name|    Dim. value|    Ref. value|      Unit|Non-dim. value|
+------------------------------------------------------------------------------+
|       Static Pressure|         38515|             1|        Pa|         38515|
|               Density|      0.465631|             1|    kg/m^3|      0.465631|
|           Temperature|        288.15|             1|         K|        288.15|
|          Total Energy|        237984|             1|   m^2/s^2|        237984|
|            Velocity-X|       249.575|             1|       m/s|       249.575|
|            Velocity-Y|       10.0676|             1|       m/s|       10.0676|
|    Velocity Magnitude|       249.778|             1|       m/s|       249.778|
+------------------------------------------------------------------------------+
|             Viscosity|    1.7893e-05|             1|   N.s/m^2|    1.7893e-05|
|          Conductivity|             -|             1|   W/m^2.K|             -|
|     Turb. Kin. Energy|       233.959|             1|   m^2/s^2|       233.959|
|     Spec. Dissipation|        608834|             1|       1/s|        608834|
+------------------------------------------------------------------------------+
|           Mach Number|             -|             -|         -|         0.734|
|       Reynolds Number|             -|             -|         -|       6.5e+06|
+------------------------------------------------------------------------------+
Initialize Jacobian structure (Navier-Stokes). MG level: 0.
Initialize Jacobian structure (SA model).

------------------- Numerics Preprocessing ( Zone 0 ) -------------------

----------------- Integration Preprocessing ( Zone 0 ) ------------------

------------------- Iteration Preprocessing ( Zone 0 ) ------------------
Euler/Navier-Stokes/RANS fluid iteration.

------------------------------ Begin Solver -----------------------------

Simulation Run using the Single-zone Driver
WARNING: SU2 was not compiled for an AVX-capable architecture. Performance could be better,
         see https://su2code.github.io/docs_v7/Build-SU2-Linux-MacOS/#compiler-optimizations
+-------------------------------------------------------------------------------------------------------+
|  Inner_Iter|   Time(sec)|    rms[Rho]|          CL|          CD|     Min CFL|     Max CFL|     Avg CFL|
+-------------------------------------------------------------------------------------------------------+
|           0|  9.1631e-02|   -2.158553|    0.096782|    0.414757|  2.0000e+00|  2.2000e+00|  2.1997e+00|
|           1|  9.2958e-02|   -2.166232|    0.123012|    0.418170|  2.0000e+00|  2.4200e+00|  2.4194e+00|
|           2|  9.3465e-02|   -2.357104|    0.139772|    0.418776|  2.0000e+00|  2.6620e+00|  2.6611e+00|
|           3|  9.6613e-02|   -2.458363|    0.148065|    0.415830|  2.2000e+00|  2.9282e+00|  2.9271e+00|
|           4|  9.6926e-02|   -2.522639|    0.152168|    0.409436|  2.4200e+00|  3.2210e+00|  3.2198e+00|
|           5|  9.8166e-02|   -2.564391|    0.158361|    0.400461|  2.6620e+00|  3.5431e+00|  3.5416e+00|
|           6|  9.8923e-02|   -2.610189|    0.164490|    0.389372|  2.9282e+00|  3.8974e+00|  3.8954e+00|
|           7|  9.9614e-02|   -2.648896|    0.170301|    0.377624|  3.2210e+00|  4.2872e+00|  4.2845e+00|
|           8|  1.0011e-01|   -2.679249|    0.175772|    0.366142|  3.5431e+00|  4.7159e+00|  4.7123e+00|
|           9|  1.1063e-01|   -2.704671|    0.180226|    0.355283|  3.8974e+00|  5.1875e+00|  5.1828e+00|
|          10|  1.2938e-01|   -2.727351|    0.183667|    0.345011|  4.2872e+00|  5.7062e+00|  5.7001e+00|
|          11|  1.4044e-01|   -2.748207|    0.186188|    0.335372|  4.7159e+00|  6.2769e+00|  6.2689e+00|
|          12|  1.3801e-01|   -2.767388|    0.188012|    0.326320|  5.1875e+00|  6.9045e+00|  6.8943e+00|
|          13|  1.3626e-01|   -2.785534|    0.189494|    0.317815|  5.7062e+00|  7.5950e+00|  7.5817e+00|
|          14|  1.3522e-01|   -2.802761|    0.190762|    0.309840|  6.2769e+00|  8.3545e+00|  8.3376e+00|
|          15|  1.3479e-01|   -2.818442|    0.191742|    0.302372|  6.9045e+00|  9.1899e+00|  9.1686e+00|
|          16|  1.3443e-01|   -2.831990|    0.192509|    0.295381|  7.5950e+00|  1.0109e+01|  1.0082e+01|
|          17|  1.4406e-01|   -2.842099|    0.193132|    0.288817|  8.3545e+00|  1.1120e+01|  1.1086e+01|
|          18|  1.5488e-01|   -2.846993|    0.193634|    0.282605|  9.1899e+00|  1.2232e+01|  1.2190e+01|
|          19|  1.5344e-01|   -2.845191|    0.194027|    0.276668|  1.0109e+01|  1.3455e+01|  1.3404e+01|
|          20|  1.5236e-01|   -2.836680|    0.194328|    0.270883|  1.0109e+01|  1.4800e+01|  1.4739e+01|
|          21|  1.5148e-01|   -2.826382|    0.194457|    0.265144|  1.0109e+01|  1.6281e+01|  1.6206e+01|
|          22|  1.5064e-01|   -2.815962|    0.194306|    0.259298|  1.0109e+01|  1.7909e+01|  1.7819e+01|
|          23|  1.4992e-01|   -2.806304|    0.193794|    0.253147|  1.0109e+01|  1.9699e+01|  1.9594e+01|
|          24|  1.4922e-01|   -2.797092|    0.192884|    0.246483|  1.1120e+01|  2.1669e+01|  2.1545e+01|
|          25|  1.4854e-01|   -2.789140|    0.191590|    0.239095|  1.2232e+01|  2.3836e+01|  2.3691e+01|
|          26|  1.5704e-01|   -2.783182|    0.189988|    0.230779|  1.3455e+01|  2.6220e+01|  2.6051e+01|
|          27|  1.6399e-01|   -2.778440|    0.188178|    0.221428|  6.7275e+00|  1.3110e+01|  1.3025e+01|
|          28|  1.6272e-01|   -2.773804|    0.187331|    0.216752|  7.4002e+00|  1.4421e+01|  1.4328e+01|
|          29|  1.6165e-01|   -2.767057|    0.186369|    0.211551|  8.1403e+00|  1.5863e+01|  1.5760e+01|
|          30|  1.6068e-01|   -2.756348|    0.185330|    0.205835|  8.9543e+00|  1.7449e+01|  1.7336e+01|
|          31|  1.5979e-01|   -2.743716|    0.184137|    0.199623|  9.8497e+00|  1.9194e+01|  1.9070e+01|
|          32|  1.5893e-01|   -2.731392|    0.182608|    0.192980|  1.0835e+01|  2.1114e+01|  2.0976e+01|
|          33|  1.6212e-01|   -2.719293|    0.180466|    0.185995|  1.1918e+01|  2.3225e+01|  2.3074e+01|
|          34|  1.6856e-01|   -2.707229|    0.177385|    0.178763|  1.3110e+01|  2.5548e+01|  2.5381e+01|
|          35|  1.6801e-01|   -2.695949|    0.173078|    0.171379|  1.3110e+01|  2.5548e+01|  2.5381e+01|
|          36|  1.6696e-01|   -2.687418|    0.168040|    0.164585|  1.3110e+01|  2.5548e+01|  2.5381e+01|
|          37|  1.6602e-01|   -2.682396|    0.162636|    0.158382|  1.4421e+01|  2.8102e+01|  2.7919e+01|
|          38|  1.6513e-01|   -2.678856|    0.156941|    0.152256|  7.2105e+00|  1.4051e+01|  1.3960e+01|
|          39|  1.6428e-01|   -2.676867|    0.154195|    0.149363|  7.9315e+00|  1.5456e+01|  1.5356e+01|
|          40|  1.6346e-01|   -2.672615|    0.151451|    0.146372|  8.7247e+00|  1.7002e+01|  1.6891e+01|
|          41|  1.6268e-01|   -2.666208|    0.148960|    0.143311|  9.5972e+00|  1.8702e+01|  1.8580e+01|
|          42|  1.6443e-01|   -2.658627|    0.147051|    0.140189|  1.0557e+01|  2.0572e+01|  2.0438e+01|
|          43|  1.6960e-01|   -2.651335|    0.146142|    0.137004|  1.1613e+01|  2.2630e+01|  2.2482e+01|
|          44|  1.6962e-01|   -2.644900|    0.146747|    0.133745|  1.2774e+01|  2.4893e+01|  2.4730e+01|
|          45|  1.6874e-01|   -2.639098|    0.149460|    0.130383|  1.4051e+01|  2.7382e+01|  2.7203e+01|
|          46|  1.6793e-01|   -2.634037|    0.154889|    0.126862|  1.4051e+01|  2.7382e+01|  2.7203e+01|
|          47|  1.6718e-01|   -2.629881|    0.162578|    0.123424|  1.4051e+01|  2.7382e+01|  2.7203e+01|
|          48|  1.6644e-01|   -2.625370|    0.172216|    0.119996|  1.4051e+01|  2.7382e+01|  2.7203e+01|
|          49|  1.6680e-01|   -2.620405|    0.183418|    0.116520|  1.4051e+01|  2.7382e+01|  2.7203e+01|
|          50|  1.7119e-01|   -2.614127|    0.195726|    0.112953|  1.4051e+01|  2.7382e+01|  2.7203e+01|
|          51|  1.7208e-01|   -2.606063|    0.208689|    0.109274|  1.5456e+01|  3.0120e+01|  2.9924e+01|
|          52|  1.7125e-01|   -2.596240|    0.223167|    0.105095|  7.7282e+00|  1.5060e+01|  1.4962e+01|
|          53|  1.7049e-01|   -2.584210|    0.230404|    0.102994|  8.5010e+00|  1.6566e+01|  1.6458e+01|
|          54|  1.6978e-01|   -2.577645|    0.238279|    0.100640|  9.3511e+00|  1.8223e+01|  1.8104e+01|
|          55|  1.6910e-01|   -2.568238|    0.246733|    0.098022|  1.0286e+01|  2.0045e+01|  1.9914e+01|
|          56|  1.6841e-01|   -2.557287|    0.255687|    0.095137|  1.1315e+01|  2.2049e+01|  2.1906e+01|
|          57|  1.6783e-01|   -2.545465|    0.265062|    0.091998|  1.2446e+01|  2.4254e+01|  2.4096e+01|
|          58|  1.6744e-01|   -2.534425|    0.274807|    0.088638|  1.3691e+01|  2.6680e+01|  2.6506e+01|
|          59|  1.6938e-01|   -2.523566|    0.284941|    0.085121|  1.5060e+01|  2.9348e+01|  2.9156e+01|
|          60|  1.7249e-01|   -2.511667|    0.295621|    0.081540|  7.5300e+00|  1.4674e+01|  1.4578e+01|
|          61|  1.7175e-01|   -2.500139|    0.300880|    0.079824|  8.2830e+00|  1.6141e+01|  1.6036e+01|
|          62|  1.7110e-01|   -2.492439|    0.306601|    0.078039|  9.1113e+00|  1.7755e+01|  1.7640e+01|
|          63|  1.7047e-01|   -2.483260|    0.312894|    0.076207|  1.0022e+01|  1.9531e+01|  1.9404e+01|
|          64|  1.6988e-01|   -2.472101|    0.319895|    0.074353|  1.1025e+01|  2.1484e+01|  2.1344e+01|
|          65|  1.6930e-01|   -2.461915|    0.327790|    0.072502|  1.2127e+01|  2.3632e+01|  2.3478e+01|
|          66|  1.6932e-01|   -2.450879|    0.336791|    0.070676|  1.3340e+01|  2.5996e+01|  2.5826e+01|
|          67|  1.7250e-01|   -2.439539|    0.347130|    0.068881|  1.4674e+01|  2.8595e+01|  2.8409e+01|
|          68|  1.7313e-01|   -2.428263|    0.359029|    0.067110|  1.6141e+01|  3.1455e+01|  3.1250e+01|
|          69|  1.7249e-01|   -2.417286|    0.372644|    0.065331|  1.6141e+01|  3.1455e+01|  3.1250e+01|
|          70|  1.7191e-01|   -2.406974|    0.386630|    0.063653|  1.6141e+01|  3.1455e+01|  3.1250e+01|
|          71|  1.7134e-01|   -2.397477|    0.400748|    0.062018|  1.6141e+01|  3.1455e+01|  3.1250e+01|
|          72|  1.7079e-01|   -2.389233|    0.414745|    0.060383|  1.6141e+01|  3.1455e+01|  3.1250e+01|
|          73|  1.7024e-01|   -2.382244|    0.428350|    0.058717|  1.7755e+01|  3.4600e+01|  3.4375e+01|
|          74|  1.6971e-01|   -2.376253|    0.442501|    0.056823|  8.8777e+00|  1.7300e+01|  1.7187e+01|
|          75|  1.6919e-01|   -2.371584|    0.449348|    0.055859|  9.7655e+00|  1.9030e+01|  1.8906e+01|
|          76|  1.6913e-01|   -2.367996|    0.456533|    0.054776|  1.0742e+01|  2.0933e+01|  2.0797e+01|
|          77|  1.7186e-01|   -2.363714|    0.463987|    0.053556|  1.1816e+01|  2.3026e+01|  2.2876e+01|
|          78|  1.7233e-01|   -2.359195|    0.471600|    0.052184|  1.2998e+01|  2.5329e+01|  2.5164e+01|
|          79|  1.7178e-01|   -2.355091|    0.479233|    0.050646|  1.4298e+01|  2.7862e+01|  2.7680e+01|
|          80|  1.7127e-01|   -2.351053|    0.486766|    0.048935|  1.5727e+01|  3.0648e+01|  3.0448e+01|
|          81|  1.7079e-01|   -2.346563|    0.494175|    0.047053|  1.7300e+01|  3.3713e+01|  3.3493e+01|
|          82|  1.7031e-01|   -2.342078|    0.501533|    0.045017|  1.7300e+01|  3.3713e+01|  3.3493e+01|
|          83|  1.6984e-01|   -2.337295|    0.508366|    0.043047|  1.7300e+01|  3.3713e+01|  3.3493e+01|
|          84|  1.6938e-01|   -2.333908|    0.514938|    0.041174|  1.7300e+01|  3.3713e+01|  3.3493e+01|
|          85|  1.6894e-01|   -2.330292|    0.521528|    0.039426|  1.7300e+01|  3.3713e+01|  3.3493e+01|
|          86|  1.7038e-01|   -2.326332|    0.528340|    0.037827|  1.7300e+01|  3.3713e+01|  3.3493e+01|
|          87|  1.7086e-01|   -2.320727|    0.535547|    0.036393|  1.7300e+01|  3.3713e+01|  3.3493e+01|
|          88|  1.7039e-01|   -2.315514|    0.543272|    0.035127|  1.7300e+01|  3.3713e+01|  3.3493e+01|
|          89|  1.6996e-01|   -2.310194|    0.551556|    0.034028|  1.7300e+01|  3.3713e+01|  3.3493e+01|
|          90|  1.6954e-01|   -2.304660|    0.560363|    0.033075|  1.7300e+01|  3.3713e+01|  3.3493e+01|
|          91|  1.6912e-01|   -2.299523|    0.569588|    0.032256|  1.7300e+01|  3.3713e+01|  3.3493e+01|
|          92|  1.6870e-01|   -2.294253|    0.579126|    0.031545|  1.7300e+01|  3.3713e+01|  3.3493e+01|
|          93|  1.6831e-01|   -2.288883|    0.588934|    0.030911|  1.7300e+01|  3.3713e+01|  3.3493e+01|
|          94|  1.6975e-01|   -2.284422|    0.598845|    0.030341|  8.6500e+00|  1.6856e+01|  1.6747e+01|
|          95|  1.7122e-01|   -2.279105|    0.603845|    0.030066|  9.5151e+00|  1.8542e+01|  1.8421e+01|
|          96|  1.7073e-01|   -2.276350|    0.609405|    0.029777|  1.0467e+01|  2.0396e+01|  2.0263e+01|
|          97|  1.7032e-01|   -2.271984|    0.615514|    0.029475|  1.1513e+01|  2.2436e+01|  2.2290e+01|
|          98|  1.6992e-01|   -2.266900|    0.622185|    0.029149|  1.2665e+01|  2.4680e+01|  2.4519e+01|
|          99|  1.6954e-01|   -2.261677|    0.629444|    0.028809|  1.3931e+01|  2.7148e+01|  2.6971e+01|
|         100|  1.6916e-01|   -2.256082|    0.637259|    0.028456|  1.5324e+01|  2.9862e+01|  2.9668e+01|
|         101|  1.6878e-01|   -2.250261|    0.645705|    0.028084|  1.6856e+01|  3.2849e+01|  3.2634e+01|
|         102|  1.7006e-01|   -2.245119|    0.654733|    0.027703|  8.4282e+00|  1.6424e+01|  1.6317e+01|
|         103|  1.7132e-01|   -2.239928|    0.659131|    0.027526|  9.2711e+00|  1.8067e+01|  1.7949e+01|
|         104|  1.7087e-01|   -2.238959|    0.663982|    0.027349|  1.0198e+01|  1.9873e+01|  1.9744e+01|
|         105|  1.7049e-01|   -2.236234|    0.669212|    0.027169|  1.1218e+01|  2.1861e+01|  2.1718e+01|
|         106|  1.7013e-01|   -2.233365|    0.674909|    0.027003|  1.2340e+01|  2.4047e+01|  2.3890e+01|
|         107|  1.6978e-01|   -2.230844|    0.680849|    0.026856|  1.3574e+01|  2.6451e+01|  2.6279e+01|
|         108|  1.6942e-01|   -2.229816|    0.686949|    0.026734|  1.4931e+01|  2.9097e+01|  2.8907e+01|
|         109|  1.6907e-01|   -2.230010|    0.693215|    0.026652|  1.6424e+01|  3.2006e+01|  3.1798e+01|
|         110|  1.6873e-01|   -2.232148|    0.699389|    0.026632|  8.2121e+00|  1.6003e+01|  1.5899e+01|
|         111|  1.6838e-01|   -2.237343|    0.702284|    0.026615|  9.0333e+00|  1.7603e+01|  1.7489e+01|
|         112|  1.6928e-01|   -2.241214|    0.705307|    0.026625|  1.0000e+00|  1.0000e+00|  1.0000e+00|
|         113|  1.7045e-01|   -2.245836|    0.705492|    0.026622|  1.1000e+00|  1.1000e+00|  1.1000e+00|
|         114|  1.7168e-01|   -2.247009|    0.705693|    0.026619|  1.2100e+00|  1.2100e+00|  1.2100e+00|
|         115|  1.7212e-01|   -2.247705|    0.705911|    0.026617|  1.3310e+00|  1.3310e+00|  1.3310e+00|
|         116|  1.7140e-01|   -2.248188|    0.706145|    0.026615|  1.4641e+00|  1.4641e+00|  1.4641e+00|
|         117|  1.7074e-01|   -2.248465|    0.706397|    0.026613|  1.6105e+00|  1.6105e+00|  1.6105e+00|
|         118|  1.7009e-01|   -2.248896|    0.706668|    0.026613|  1.7716e+00|  1.7716e+00|  1.7716e+00|
|         119|  1.6946e-01|   -2.249197|    0.706960|    0.026613|  1.9487e+00|  1.9487e+00|  1.9487e+00|
|         120|  1.6890e-01|   -2.249598|    0.707276|    0.026614|  2.1436e+00|  2.1436e+00|  2.1436e+00|
|         121|  1.6835e-01|   -2.249939|    0.707617|    0.026616|  2.3579e+00|  2.3579e+00|  2.3579e+00|
|         122|  1.6781e-01|   -2.250373|    0.707986|    0.026620|  2.5937e+00|  2.5937e+00|  2.5937e+00|
|         123|  1.6727e-01|   -2.250810|    0.708385|    0.026625|  2.8531e+00|  2.8531e+00|  2.8531e+00|
|         124|  1.6675e-01|   -2.251349|    0.708819|    0.026632|  3.1384e+00|  3.1384e+00|  3.1384e+00|
|         125|  1.6628e-01|   -2.251919|    0.709294|    0.026643|  3.4523e+00|  3.4523e+00|  3.4523e+00|
|         126|  1.6607e-01|   -2.252583|    0.709815|    0.026657|  3.7975e+00|  3.7975e+00|  3.7975e+00|
|         127|  1.6734e-01|   -2.253306|    0.710394|    0.026675|  4.1772e+00|  4.1772e+00|  4.1772e+00|
|         128|  1.6771e-01|   -2.254064|    0.711039|    0.026698|  4.5950e+00|  4.5950e+00|  4.5950e+00|
|         129|  1.6722e-01|   -2.255214|    0.711753|    0.026728|  5.0545e+00|  5.0545e+00|  5.0545e+00|
|         130|  1.6682e-01|   -2.256396|    0.712526|    0.026762|  5.5599e+00|  5.5599e+00|  5.5599e+00|
|         131|  1.6643e-01|   -2.257681|    0.713362|    0.026800|  6.1159e+00|  6.1159e+00|  6.1159e+00|
|         132|  1.6606e-01|   -2.259069|    0.714260|    0.026840|  6.7275e+00|  6.7275e+00|  6.7275e+00|
|         133|  1.6581e-01|   -2.260795|    0.715203|    0.026882|  7.4002e+00|  7.4002e+00|  7.4002e+00|
|         134|  1.6551e-01|   -2.262882|    0.716193|    0.026925|  8.1403e+00|  8.1403e+00|  8.1403e+00|
|         135|  1.6524e-01|   -2.265199|    0.717232|    0.026972|  8.9543e+00|  8.9543e+00|  8.9543e+00|
|         136|  1.6652e-01|   -2.268002|    0.718276|    0.027020|  9.8497e+00|  9.8497e+00|  9.8497e+00|
|         137|  1.6682e-01|   -2.271268|    0.719300|    0.027073|  1.0835e+01|  1.0835e+01|  1.0835e+01|
|         138|  1.6653e-01|   -2.274884|    0.720421|    0.027151|  1.1918e+01|  1.1918e+01|  1.1918e+01|
|         139|  1.6626e-01|   -2.279081|    0.721589|    0.027255|  1.3110e+01|  1.3110e+01|  1.3110e+01|
|         140|  1.6601e-01|   -2.284174|    0.722757|    0.027375|  1.4421e+01|  1.4421e+01|  1.4421e+01|
|         141|  1.6575e-01|   -2.289776|    0.723912|    0.027509|  1.5863e+01|  1.5863e+01|  1.5863e+01|
|         142|  1.6550e-01|   -2.296785|    0.725041|    0.027658|  1.7449e+01|  1.7449e+01|  1.7449e+01|
|         143|  1.6527e-01|   -2.304412|    0.726054|    0.027810|  1.9194e+01|  1.9194e+01|  1.9194e+01|
|         144|  1.6503e-01|   -2.313572|    0.727314|    0.028024|  2.1114e+01|  2.1114e+01|  2.1114e+01|
|         145|  1.6622e-01|   -2.321615|    0.728803|    0.028296|  2.3225e+01|  2.3225e+01|  2.3225e+01|
|         146|  1.6689e-01|   -2.330690|    0.730292|    0.028593|  2.5548e+01|  2.5548e+01|  2.5548e+01|
|         147|  1.6662e-01|   -2.342396|    0.731696|    0.028889|  2.5548e+01|  2.8102e+01|  2.8102e+01|
|         148|  1.6638e-01|   -2.355001|    0.733573|    0.029283|  2.5548e+01|  3.0913e+01|  3.0912e+01|
|         149|  1.6615e-01|   -2.367630|    0.735704|    0.029745|  2.8102e+01|  3.4004e+01|  3.4002e+01|
|         150|  1.6592e-01|   -2.379840|    0.738499|    0.030325|  2.8102e+01|  3.4004e+01|  3.4002e+01|
|         151|  1.6569e-01|   -2.388570|    0.741084|    0.030886|  2.8102e+01|  3.4004e+01|  3.4002e+01|
|         152|  1.6546e-01|   -2.397045|    0.743193|    0.031384|  2.8102e+01|  3.4004e+01|  3.4002e+01|
|         153|  1.6587e-01|   -2.398594|    0.744999|    0.031830|  3.0913e+01|  3.7404e+01|  3.7402e+01|
|         154|  1.6721e-01|   -2.399342|    0.746967|    0.032317|  1.5456e+01|  1.8702e+01|  1.8701e+01|
|         155|  1.6699e-01|   -2.406816|    0.747738|    0.032523|  1.7002e+01|  2.0572e+01|  2.0571e+01|
|         156|  1.6681e-01|   -2.412854|    0.748228|    0.032706|  1.8702e+01|  2.2630e+01|  2.2628e+01|
|         157|  1.6661e-01|   -2.417078|    0.748637|    0.032891|  2.0572e+01|  2.4893e+01|  2.4891e+01|
|         158|  1.6639e-01|   -2.413969|    0.748863|    0.033060|  2.2630e+01|  2.7382e+01|  2.7380e+01|
|         159|  1.6616e-01|   -2.424913|    0.748952|    0.033216|  2.4893e+01|  3.0120e+01|  3.0118e+01|
|         160|  1.6594e-01|   -2.430342|    0.748837|    0.033353|  2.7382e+01|  3.3132e+01|  3.3130e+01|
|         161|  1.6572e-01|   -2.440226|    0.748454|    0.033465|  1.3691e+01|  1.6566e+01|  1.6565e+01|
|         162|  1.6550e-01|   -2.452078|    0.747963|    0.033471|  1.5060e+01|  1.8223e+01|  1.8221e+01|
|         163|  1.6529e-01|   -2.459971|    0.747386|    0.033474|  1.6566e+01|  2.0045e+01|  2.0043e+01|
|         164|  1.6508e-01|   -2.468869|    0.746507|    0.033438|  1.8223e+01|  2.2049e+01|  2.2048e+01|
|         165|  1.6566e-01|   -2.479372|    0.745297|    0.033356|  2.0045e+01|  2.4254e+01|  2.4253e+01|
|         166|  1.6667e-01|   -2.491832|    0.743788|    0.033232|  2.2049e+01|  2.6680e+01|  2.6678e+01|
|         167|  1.6642e-01|   -2.506663|    0.741971|    0.033067|  2.4254e+01|  2.9348e+01|  2.9346e+01|
|         168|  1.6623e-01|   -2.523092|    0.739640|    0.032824|  2.6680e+01|  3.2282e+01|  3.2280e+01|
|         169|  1.6615e-01|   -2.544891|    0.736798|    0.032498|  1.3340e+01|  1.6141e+01|  1.6140e+01|
|         170|  1.6595e-01|   -2.569590|    0.735453|    0.032339|  1.4674e+01|  1.7755e+01|  1.7754e+01|
|         171|  1.6577e-01|   -2.584624|    0.733858|    0.032142|  1.6141e+01|  1.9531e+01|  1.9529e+01|
|         172|  1.6557e-01|   -2.599744|    0.731924|    0.031889|  1.7755e+01|  2.1484e+01|  2.1482e+01|
|         173|  1.6537e-01|   -2.615124|    0.729675|    0.031582|  1.9531e+01|  2.3632e+01|  2.3631e+01|
|         174|  1.6518e-01|   -2.632449|    0.727320|    0.031243|  2.1484e+01|  2.5996e+01|  2.5994e+01|
|         175|  1.6636e-01|   -2.649885|    0.724469|    0.030812|  2.3632e+01|  2.8595e+01|  2.8593e+01|
|         176|  1.6719e-01|   -2.672516|    0.721165|    0.030286|  2.5996e+01|  3.1455e+01|  3.1452e+01|
|         177|  1.6695e-01|   -2.694120|    0.717628|    0.029686|  2.5996e+01|  3.1455e+01|  3.1452e+01|
|         178|  1.6675e-01|   -2.716800|    0.714136|    0.029051|  2.5996e+01|  3.1455e+01|  3.1452e+01|
|         179|  1.6656e-01|   -2.739333|    0.710668|    0.028379|  2.5996e+01|  3.1455e+01|  3.1452e+01|
|         180|  1.6639e-01|   -2.759834|    0.707533|    0.027720|  2.5996e+01|  3.1455e+01|  3.1452e+01|
|         181|  1.6632e-01|   -2.780829|    0.704634|    0.027054|  2.5996e+01|  3.1455e+01|  3.1452e+01|
|         182|  1.6613e-01|   -2.796218|    0.701768|    0.026357|  2.5996e+01|  3.1455e+01|  3.1452e+01|
|         183|  1.6594e-01|   -2.806560|    0.699291|    0.025679|  2.8595e+01|  3.4600e+01|  3.4598e+01|
|         184|  1.6575e-01|   -2.827542|    0.696856|    0.024939|  1.4298e+01|  1.7300e+01|  1.7299e+01|
|         185|  1.6558e-01|   -2.828908|    0.695666|    0.024561|  1.5727e+01|  1.9030e+01|  1.9029e+01|
|         186|  1.6568e-01|   -2.854638|    0.694611|    0.024174|  1.7300e+01|  2.0933e+01|  2.0932e+01|
|         187|  1.6686e-01|   -2.863712|    0.693649|    0.023770|  1.9030e+01|  2.3026e+01|  2.3025e+01|
|         188|  1.6803e-01|   -2.871685|    0.692620|    0.023326|  2.0933e+01|  2.5329e+01|  2.5327e+01|
|         189|  1.6842e-01|   -2.864801|    0.691755|    0.022872|  2.3026e+01|  2.7862e+01|  2.7860e+01|
|         190|  1.6821e-01|   -2.870924|    0.691182|    0.022413|  2.5329e+01|  3.0648e+01|  3.0646e+01|
|         191|  1.6801e-01|   -2.866829|    0.690667|    0.021923|  2.5329e+01|  3.0648e+01|  3.0646e+01|
|         192|  1.6783e-01|   -2.860441|    0.690291|    0.021463|  2.5329e+01|  3.0648e+01|  3.0646e+01|
|         193|  1.6764e-01|   -2.859220|    0.690250|    0.021049|  2.5329e+01|  3.0648e+01|  3.0646e+01|
|         194|  1.6745e-01|   -2.860451|    0.690271|    0.020673|  2.5329e+01|  3.0648e+01|  3.0646e+01|
|         195|  1.6726e-01|   -2.861800|    0.690433|    0.020341|  2.5329e+01|  3.0648e+01|  3.0646e+01|
|         196|  1.6709e-01|   -2.868835|    0.690897|    0.020055|  2.5329e+01|  3.0648e+01|  3.0646e+01|
|         197|  1.6821e-01|   -2.871277|    0.691377|    0.019813|  2.5329e+01|  3.0648e+01|  3.0646e+01|
|         198|  1.6860e-01|   -2.877785|    0.692022|    0.019627|  2.7862e+01|  3.3713e+01|  3.3710e+01|
|         199|  1.6839e-01|   -2.880781|    0.692911|    0.019492|  1.3931e+01|  1.6856e+01|  1.6855e+01|
|         200|  1.6821e-01|   -2.886475|    0.693333|    0.019430|  1.5324e+01|  1.8542e+01|  1.8541e+01|
|         201|  1.6802e-01|   -2.899710|    0.693894|    0.019392|  1.6856e+01|  2.0396e+01|  2.0395e+01|
|         202|  1.6784e-01|   -2.906384|    0.694589|    0.019383|  1.8542e+01|  2.2436e+01|  2.2434e+01|
|         203|  1.6766e-01|   -2.911192|    0.695386|    0.019405|  2.0396e+01|  2.4680e+01|  2.4678e+01|
|         204|  1.6747e-01|   -2.915072|    0.696431|    0.019472|  2.2436e+01|  2.7148e+01|  2.7145e+01|
|         205|  1.6840e-01|   -2.919678|    0.697713|    0.019591|  2.4680e+01|  2.9862e+01|  2.9860e+01|
|         206|  1.6882e-01|   -2.926722|    0.699178|    0.019770|  2.7148e+01|  3.2849e+01|  3.2846e+01|
|         207|  1.6862e-01|   -2.935048|    0.700902|    0.020021|  1.3574e+01|  1.6424e+01|  1.6423e+01|
|         208|  1.6845e-01|   -2.944142|    0.701756|    0.020157|  1.4931e+01|  1.8067e+01|  1.8065e+01|
|         209|  1.6827e-01|   -2.955636|    0.702762|    0.020324|  1.6424e+01|  1.9873e+01|  1.9872e+01|
|         210|  1.6810e-01|   -2.965633|    0.703911|    0.020525|  1.8067e+01|  2.1861e+01|  2.1859e+01|
|         211|  1.6792e-01|   -2.973521|    0.705235|    0.020768|  1.9873e+01|  2.4047e+01|  2.4045e+01|
|         212|  1.6774e-01|   -2.980319|    0.706818|    0.021063|  2.1861e+01|  2.6451e+01|  2.6449e+01|
|         213|  1.6757e-01|   -2.989445|    0.708646|    0.021414|  2.4047e+01|  2.9097e+01|  2.9094e+01|
|         214|  1.6740e-01|   -2.994206|    0.710780|    0.021834|  2.4047e+01|  2.9097e+01|  2.9094e+01|
|         215|  1.6723e-01|   -3.003855|    0.713026|    0.022277|  2.4047e+01|  2.9097e+01|  2.9094e+01|
|         216|  1.6797e-01|   -3.017462|    0.715382|    0.022745|  2.4047e+01|  2.9097e+01|  2.9094e+01|
|         217|  1.6847e-01|   -3.028216|    0.717865|    0.023230|  2.4047e+01|  2.9097e+01|  2.9094e+01|
|         218|  1.6828e-01|   -3.040351|    0.720461|    0.023729|  2.4047e+01|  2.9097e+01|  2.9094e+01|
|         219|  1.6811e-01|   -3.048621|    0.723138|    0.024227|  2.6451e+01|  3.2006e+01|  3.2003e+01|
|         220|  1.6795e-01|   -3.063714|    0.726139|    0.024767|  1.3226e+01|  1.6003e+01|  1.6002e+01|
|         221|  1.6778e-01|   -3.070955|    0.727656|    0.025029|  1.4548e+01|  1.7603e+01|  1.7602e+01|
|         222|  1.6762e-01|   -3.087678|    0.729382|    0.025320|  1.6003e+01|  1.9364e+01|  1.9362e+01|
|         223|  1.6746e-01|   -3.099137|    0.731305|    0.025634|  1.7603e+01|  2.1300e+01|  2.1298e+01|
|         224|  1.6730e-01|   -3.108921|    0.733408|    0.025964|  1.9364e+01|  2.3430e+01|  2.3428e+01|
|         225|  1.6716e-01|   -3.112814|    0.735743|    0.026309|  2.1300e+01|  2.5773e+01|  2.5771e+01|
|         226|  1.6841e-01|   -3.119948|    0.738324|    0.026661|  2.3430e+01|  2.8351e+01|  2.8348e+01|
|         227|  1.6838e-01|   -3.129396|    0.741182|    0.027012|  2.5773e+01|  3.1186e+01|  3.1183e+01|
|         228|  1.6821e-01|   -3.135924|    0.744279|    0.027345|  2.5773e+01|  3.1186e+01|  3.1183e+01|
|         229|  1.6805e-01|   -3.143725|    0.747324|    0.027618|  2.5773e+01|  3.1186e+01|  3.1183e+01|
|         230|  1.6789e-01|   -3.156362|    0.750330|    0.027826|  2.5773e+01|  3.1186e+01|  3.1183e+01|
|         231|  1.6774e-01|   -3.166077|    0.753311|    0.027968|  2.5773e+01|  3.1186e+01|  3.1183e+01|
|         232|  1.6758e-01|   -3.177717|    0.756225|    0.028039|  2.5773e+01|  3.1186e+01|  3.1183e+01|
|         233|  1.6798e-01|   -3.187512|    0.759098|    0.028039|  2.5773e+01|  3.1186e+01|  3.1183e+01|
|         234|  1.6873e-01|   -3.201165|    0.761882|    0.027965|  2.5773e+01|  3.1186e+01|  3.1183e+01|
|         235|  1.6855e-01|   -3.215935|    0.764597|    0.027824|  2.5773e+01|  3.1186e+01|  3.1183e+01|
|         236|  1.6839e-01|   -3.225551|    0.767228|    0.027616|  2.5773e+01|  3.1186e+01|  3.1183e+01|
|         237|  1.6824e-01|   -3.235026|    0.769791|    0.027342|  2.5773e+01|  3.1186e+01|  3.1183e+01|
|         238|  1.6809e-01|   -3.246603|    0.772265|    0.027004|  1.2887e+01|  1.5593e+01|  1.5591e+01|
|         239|  1.6794e-01|   -3.262122|    0.773454|    0.026819|  1.4175e+01|  1.7152e+01|  1.7150e+01|
|         240|  1.6778e-01|   -3.290191|    0.774738|    0.026600|  1.5593e+01|  1.8867e+01|  1.8865e+01|
|         241|  1.6763e-01|   -3.300934|    0.776110|    0.026339|  1.7152e+01|  2.0754e+01|  2.0752e+01|
|         242|  1.6747e-01|   -3.303382|    0.777561|    0.026027|  1.8867e+01|  2.2829e+01|  2.2827e+01|
|         243|  1.6733e-01|   -3.305819|    0.779082|    0.025655|  2.0754e+01|  2.5112e+01|  2.5110e+01|
|         244|  1.6759e-01|   -3.311951|    0.780683|    0.025215|  2.2829e+01|  2.7624e+01|  2.7621e+01|
|         245|  1.6850e-01|   -3.306590|    0.782344|    0.024697|  2.5112e+01|  3.0386e+01|  3.0383e+01|
|         246|  1.6939e-01|   -3.317165|    0.784037|    0.024097|  1.2556e+01|  1.5193e+01|  1.5192e+01|
|         247|  1.6948e-01|   -3.314227|    0.784851|    0.023790|  1.3812e+01|  1.6712e+01|  1.6711e+01|
|         248|  1.6931e-01|   -3.318048|    0.785705|    0.023446|  1.5193e+01|  1.8383e+01|  1.8382e+01|
|         249|  1.6916e-01|   -3.321741|    0.786591|    0.023057|  1.6712e+01|  2.0222e+01|  2.0220e+01|
|         250|  1.6901e-01|   -3.324079|    0.787501|    0.022618|  1.8383e+01|  2.2244e+01|  2.2242e+01|
|         251|  1.6886e-01|   -3.320242|    0.788420|    0.022124|  2.0222e+01|  2.4468e+01|  2.4466e+01|
|         252|  1.6871e-01|   -3.315737|    0.789318|    0.021572|  2.2244e+01|  2.6915e+01|  2.6913e+01|
|         253|  1.6856e-01|   -3.305265|    0.790170|    0.020961|  2.4468e+01|  2.9607e+01|  2.9604e+01|
|         254|  1.6841e-01|   -3.305522|    0.790949|    0.020287|  2.4468e+01|  2.9607e+01|  2.9604e+01|
|         255|  1.6885e-01|   -3.302730|    0.791591|    0.019611|  2.4468e+01|  2.9607e+01|  2.9604e+01|
|         256|  1.6950e-01|   -3.294222|    0.792107|    0.018937|  2.4468e+01|  2.9607e+01|  2.9604e+01|
|         257|  1.6933e-01|   -3.290360|    0.792447|    0.018272|  2.4468e+01|  2.9607e+01|  2.9604e+01|
|         258|  1.6918e-01|   -3.285709|    0.792625|    0.017620|  2.4468e+01|  2.9607e+01|  2.9604e+01|
|         259|  1.6903e-01|   -3.279536|    0.792689|    0.016983|  2.4468e+01|  2.9607e+01|  2.9604e+01|
|         260|  1.6889e-01|   -3.273760|    0.792646|    0.016365|  2.4468e+01|  2.9607e+01|  2.9604e+01|
|         261|  1.6874e-01|   -3.268258|    0.792463|    0.015769|  2.4468e+01|  2.9607e+01|  2.9604e+01|
|         262|  1.6860e-01|   -3.263463|    0.792140|    0.015198|  2.4468e+01|  2.9607e+01|  2.9604e+01|
|         263|  1.6890e-01|   -3.258810|    0.791714|    0.014653|  2.4468e+01|  2.9607e+01|  2.9604e+01|
|         264|  1.6958e-01|   -3.252649|    0.791190|    0.014138|  2.6915e+01|  3.2567e+01|  3.2564e+01|
|         265|  1.6955e-01|   -3.250100|    0.790484|    0.013613|  1.3458e+01|  1.6284e+01|  1.6282e+01|
|         266|  1.6956e-01|   -3.245291|    0.790055|    0.013361|  1.4803e+01|  1.7912e+01|  1.7910e+01|
|         267|  1.6941e-01|   -3.246404|    0.789557|    0.013099|  1.6284e+01|  1.9703e+01|  1.9701e+01|
|         268|  1.6927e-01|   -3.245061|    0.788989|    0.012825|  1.7912e+01|  2.1674e+01|  2.1672e+01|
|         269|  1.6914e-01|   -3.243284|    0.788345|    0.012545|  1.9703e+01|  2.3841e+01|  2.3839e+01|
|         270|  1.6900e-01|   -3.241116|    0.787567|    0.012267|  2.1674e+01|  2.6225e+01|  2.6223e+01|
|         271|  1.6886e-01|   -3.239239|    0.786655|    0.011999|  2.3841e+01|  2.8848e+01|  2.8845e+01|
|         272|  1.6872e-01|   -3.236888|    0.785631|    0.011750|  2.6225e+01|  3.1732e+01|  3.1729e+01|
|         273|  1.6858e-01|   -3.234885|    0.784502|    0.011532|  1.3113e+01|  1.5866e+01|  1.5865e+01|
|         274|  1.6844e-01|   -3.233854|    0.783898|    0.011436|  1.4424e+01|  1.7453e+01|  1.7451e+01|
|         275|  1.6894e-01|   -3.237329|    0.783205|    0.011349|  1.5866e+01|  1.9198e+01|  1.9196e+01|
|         276|  1.6941e-01|   -3.239204|    0.782444|    0.011274|  1.7453e+01|  2.1118e+01|  2.1116e+01|
|         277|  1.6924e-01|   -3.239177|    0.781627|    0.011217|  1.9198e+01|  2.3230e+01|  2.3227e+01|
|         278|  1.6911e-01|   -3.239302|    0.780722|    0.011185|  2.1118e+01|  2.5553e+01|  2.5550e+01|
|         279|  1.6898e-01|   -3.239321|    0.779702|    0.011189|  2.3230e+01|  2.8108e+01|  2.8105e+01|
|         280|  1.6884e-01|   -3.240387|    0.778602|    0.011240|  2.5553e+01|  3.0919e+01|  3.0916e+01|
|         281|  1.6871e-01|   -3.242033|    0.777442|    0.011353|  2.5553e+01|  3.0919e+01|  3.0916e+01|
|         282|  1.6857e-01|   -3.244459|    0.776298|    0.011523|  2.5553e+01|  3.0919e+01|  3.0916e+01|
|         283|  1.6844e-01|   -3.249652|    0.775184|    0.011746|  2.5553e+01|  3.0919e+01|  3.0916e+01|
|         284|  1.6831e-01|   -3.254930|    0.774151|    0.012019|  2.5553e+01|  3.0919e+01|  3.0916e+01|
|         285|  1.6818e-01|   -3.260540|    0.773149|    0.012343|  2.5553e+01|  3.0919e+01|  3.0916e+01|
|         286|  1.6805e-01|   -3.267265|    0.772187|    0.012717|  2.5553e+01|  3.0919e+01|  3.0916e+01|
|         287|  1.6846e-01|   -3.273957|    0.771299|    0.013135|  2.5553e+01|  3.0919e+01|  3.0916e+01|
|         288|  1.6893e-01|   -3.281170|    0.770467|    0.013599|  2.5553e+01|  3.0919e+01|  3.0916e+01|
|         289|  1.6878e-01|   -3.287396|    0.769704|    0.014105|  2.5553e+01|  3.0919e+01|  3.0916e+01|
|         290|  1.6865e-01|   -3.296204|    0.768995|    0.014650|  2.5553e+01|  3.0919e+01|  3.0916e+01|
|         291|  1.6852e-01|   -3.304420|    0.768369|    0.015230|  2.5553e+01|  3.0919e+01|  3.0916e+01|
|         292|  1.6840e-01|   -3.308336|    0.767839|    0.015843|  2.5553e+01|  3.0919e+01|  3.0916e+01|
|         293|  1.6827e-01|   -3.313680|    0.767378|    0.016485|  2.5553e+01|  3.0919e+01|  3.0916e+01|
|         294|  1.6814e-01|   -3.314377|    0.766964|    0.017151|  2.5553e+01|  3.0919e+01|  3.0916e+01|
|         295|  1.6802e-01|   -3.313467|    0.766636|    0.017838|  2.5553e+01|  3.0919e+01|  3.0916e+01|
|         296|  1.6790e-01|   -3.320979|    0.766397|    0.018541|  2.5553e+01|  3.0919e+01|  3.0916e+01|
|         297|  1.6839e-01|   -3.338604|    0.766221|    0.019255|  2.5553e+01|  3.0919e+01|  3.0916e+01|
|         298|  1.6912e-01|   -3.348356|    0.766096|    0.019976|  2.5553e+01|  3.0919e+01|  3.0916e+01|
|         299|  1.6899e-01|   -3.355816|    0.766019|    0.020701|  2.5553e+01|  3.0919e+01|  3.0916e+01|
|         300|  1.6886e-01|   -3.361335|    0.765991|    0.021423|  2.5553e+01|  3.0919e+01|  3.0916e+01|
|         301|  1.6874e-01|   -3.366007|    0.766020|    0.022138|  2.5553e+01|  3.0919e+01|  3.0916e+01|
|         302|  1.6861e-01|   -3.370395|    0.766094|    0.022841|  2.5553e+01|  3.0919e+01|  3.0916e+01|
|         303|  1.6849e-01|   -3.370272|    0.766223|    0.023528|  2.5553e+01|  3.0919e+01|  3.0916e+01|
|         304|  1.6837e-01|   -3.368425|    0.766386|    0.024196|  2.5553e+01|  3.0919e+01|  3.0916e+01|
|         305|  1.6825e-01|   -3.365883|    0.766572|    0.024837|  2.5553e+01|  3.0919e+01|  3.0916e+01|
|         306|  1.6812e-01|   -3.361885|    0.766793|    0.025448|  2.5553e+01|  3.0919e+01|  3.0916e+01|
|         307|  1.6801e-01|   -3.359206|    0.767059|    0.026026|  2.5553e+01|  3.0919e+01|  3.0916e+01|
|         308|  1.6789e-01|   -3.355743|    0.767354|    0.026566|  2.5553e+01|  3.0919e+01|  3.0916e+01|
|         309|  1.6861e-01|   -3.351760|    0.767659|    0.027065|  2.5553e+01|  3.0919e+01|  3.0916e+01|
|         310|  1.6931e-01|   -3.347684|    0.767999|    0.027522|  2.5553e+01|  3.0919e+01|  3.0916e+01|
|         311|  1.6975e-01|   -3.344171|    0.768385|    0.027934|  2.5553e+01|  3.0919e+01|  3.0916e+01|
|         312|  1.6961e-01|   -3.341056|    0.768817|    0.028295|  2.5553e+01|  3.0919e+01|  3.0916e+01|
|         313|  1.6948e-01|   -3.338124|    0.769281|    0.028605|  2.5553e+01|  3.0919e+01|  3.0916e+01|
|         314|  1.6936e-01|   -3.334498|    0.769758|    0.028863|  2.5553e+01|  3.0919e+01|  3.0916e+01|
|         315|  1.6923e-01|   -3.333431|    0.770255|    0.029066|  2.5553e+01|  3.0919e+01|  3.0916e+01|
|         316|  1.6911e-01|   -3.332599|    0.770793|    0.029213|  2.5553e+01|  3.0919e+01|  3.0916e+01|
|         317|  1.6899e-01|   -3.332045|    0.771381|    0.029302|  2.5553e+01|  3.0919e+01|  3.0916e+01|
|         318|  1.6886e-01|   -3.332402|    0.772012|    0.029334|  1.2776e+01|  1.5459e+01|  1.5458e+01|
|         319|  1.6921e-01|   -3.332938|    0.772349|    0.029338|  1.4054e+01|  1.7005e+01|  1.7004e+01|
|         320|  1.6976e-01|   -3.335925|    0.772720|    0.029324|  1.5459e+01|  1.8706e+01|  1.8704e+01|
|         321|  1.6962e-01|   -3.338450|    0.773133|    0.029288|  1.7005e+01|  2.0576e+01|  2.0574e+01|
|         322|  1.6950e-01|   -3.340104|    0.773598|    0.029222|  1.8706e+01|  2.2634e+01|  2.2632e+01|
|         323|  1.6939e-01|   -3.341699|    0.774130|    0.029118|  2.0576e+01|  2.4897e+01|  2.4895e+01|
|         324|  1.6927e-01|   -3.344598|    0.774747|    0.028967|  2.2634e+01|  2.7387e+01|  2.7385e+01|
|         325|  1.6915e-01|   -3.347634|    0.775461|    0.028757|  2.4897e+01|  3.0126e+01|  3.0123e+01|
|         326|  1.6903e-01|   -3.351640|    0.776280|    0.028474|  2.4897e+01|  3.0126e+01|  3.0123e+01|
|         327|  1.6932e-01|   -3.355881|    0.777119|    0.028144|  2.4897e+01|  3.0126e+01|  3.0123e+01|
|         328|  1.6988e-01|   -3.360439|    0.777984|    0.027769|  2.4897e+01|  3.0126e+01|  3.0123e+01|
|         329|  1.6975e-01|   -3.368859|    0.778897|    0.027349|  2.4897e+01|  3.0126e+01|  3.0123e+01|
|         330|  1.6964e-01|   -3.377070|    0.779858|    0.026888|  2.4897e+01|  3.0126e+01|  3.0123e+01|
|         331|  1.6952e-01|   -3.385187|    0.780856|    0.026387|  2.4897e+01|  3.0126e+01|  3.0123e+01|
|         332|  1.6941e-01|   -3.391215|    0.781879|    0.025851|  2.4897e+01|  3.0126e+01|  3.0123e+01|
|         333|  1.6929e-01|   -3.403618|    0.782932|    0.025284|  2.4897e+01|  3.0126e+01|  3.0123e+01|
|         334|  1.6918e-01|   -3.411565|    0.784024|    0.024689|  2.4897e+01|  3.0126e+01|  3.0123e+01|
|         335|  1.6906e-01|   -3.422478|    0.785157|    0.024069|  2.4897e+01|  3.0126e+01|  3.0123e+01|
|         336|  1.6895e-01|   -3.431142|    0.786324|    0.023427|  2.4897e+01|  3.0126e+01|  3.0123e+01|
|         337|  1.6883e-01|   -3.442614|    0.787509|    0.022770|  2.4897e+01|  3.0126e+01|  3.0123e+01|
|         338|  1.6917e-01|   -3.453726|    0.788708|    0.022101|  2.7387e+01|  3.3139e+01|  3.3135e+01|
|         339|  1.6962e-01|   -3.461594|    0.790063|    0.021355|  1.3694e+01|  1.6569e+01|  1.6568e+01|
|         340|  1.6948e-01|   -3.468056|    0.790754|    0.020981|  1.5063e+01|  1.8226e+01|  1.8224e+01|
|         341|  1.6937e-01|   -3.491640|    0.791522|    0.020569|  1.6569e+01|  2.0049e+01|  2.0047e+01|
|         342|  1.6927e-01|   -3.501911|    0.792374|    0.020114|  1.8226e+01|  2.2054e+01|  2.2052e+01|
|         343|  1.6916e-01|   -3.503503|    0.793311|    0.019617|  2.0049e+01|  2.4259e+01|  2.4257e+01|
|         344|  1.6905e-01|   -3.499201|    0.794344|    0.019075|  2.2054e+01|  2.6685e+01|  2.6682e+01|
|         345|  1.6894e-01|   -3.500635|    0.795486|    0.018486|  2.4259e+01|  2.9353e+01|  2.9351e+01|
|         346|  1.6883e-01|   -3.504409|    0.796761|    0.017853|  2.6685e+01|  3.2289e+01|  3.2286e+01|
|         347|  1.6881e-01|   -3.501511|    0.798178|    0.017179|  1.3342e+01|  1.6144e+01|  1.6143e+01|
|         348|  1.6945e-01|   -3.498151|    0.798885|    0.016848|  1.4677e+01|  1.7759e+01|  1.7757e+01|
|         349|  1.6937e-01|   -3.512224|    0.799661|    0.016492|  1.6144e+01|  1.9535e+01|  1.9533e+01|
|         350|  1.6926e-01|   -3.518291|    0.800507|    0.016112|  1.7759e+01|  2.1488e+01|  2.1486e+01|
|         351|  1.6916e-01|   -3.519019|    0.801427|    0.015710|  1.9535e+01|  2.3637e+01|  2.3635e+01|
|         352|  1.6905e-01|   -3.518466|    0.802433|    0.015287|  2.1488e+01|  2.6001e+01|  2.5998e+01|
|         353|  1.6895e-01|   -3.515620|    0.803525|    0.014848|  2.3637e+01|  2.8601e+01|  2.8598e+01|
|         354|  1.6884e-01|   -3.511774|    0.804700|    0.014400|  2.6001e+01|  3.1461e+01|  3.1458e+01|
|         355|  1.6937e-01|   -3.506894|    0.805947|    0.013953|  2.6001e+01|  3.1461e+01|  3.1458e+01|
|         356|  1.6958e-01|   -3.501844|    0.807154|    0.013555|  2.8601e+01|  3.4607e+01|  3.4604e+01|
|         357|  1.6946e-01|   -3.495905|    0.808439|    0.013178|  1.4300e+01|  1.7303e+01|  1.7302e+01|
|         358|  1.6935e-01|   -3.493028|    0.809063|    0.013003|  1.5730e+01|  1.9034e+01|  1.9032e+01|
|         359|  1.6924e-01|   -3.497875|    0.809727|    0.012832|  1.7303e+01|  2.0937e+01|  2.0935e+01|
|         360|  1.6914e-01|   -3.501766|    0.810430|    0.012668|  1.9034e+01|  2.3031e+01|  2.3029e+01|
|         361|  1.6904e-01|   -3.498094|    0.811168|    0.012519|  2.0937e+01|  2.5334e+01|  2.5332e+01|
|         362|  1.6894e-01|   -3.498461|    0.811935|    0.012392|  2.3031e+01|  2.7867e+01|  2.7865e+01|
|         363|  1.6883e-01|   -3.497885|    0.812707|    0.012299|  2.5334e+01|  3.0654e+01|  3.0651e+01|
|         364|  1.6875e-01|   -3.496748|    0.813477|    0.012251|  2.5334e+01|  3.0654e+01|  3.0651e+01|
|         365|  1.6931e-01|   -3.496306|    0.814170|    0.012259|  2.5334e+01|  3.0654e+01|  3.0651e+01|
|         366|  1.6922e-01|   -3.497260|    0.814794|    0.012321|  2.5334e+01|  3.0654e+01|  3.0651e+01|
|         367|  1.6912e-01|   -3.500695|    0.815333|    0.012438|  2.5334e+01|  3.0654e+01|  3.0651e+01|
|         368|  1.6901e-01|   -3.503259|    0.815767|    0.012608|  2.5334e+01|  3.0654e+01|  3.0651e+01|
|         369|  1.6891e-01|   -3.507683|    0.816096|    0.012827|  2.5334e+01|  3.0654e+01|  3.0651e+01|
|         370|  1.6881e-01|   -3.511354|    0.816319|    0.013095|  2.5334e+01|  3.0654e+01|  3.0651e+01|
|         371|  1.6871e-01|   -3.514723|    0.816437|    0.013408|  2.5334e+01|  3.0654e+01|  3.0651e+01|
|         372|  1.6861e-01|   -3.519472|    0.816456|    0.013764|  2.5334e+01|  3.0654e+01|  3.0651e+01|
|         373|  1.6895e-01|   -3.527029|    0.816367|    0.014158|  2.5334e+01|  3.0654e+01|  3.0651e+01|
|         374|  1.6930e-01|   -3.532779|    0.816167|    0.014589|  2.5334e+01|  3.0654e+01|  3.0651e+01|
|         375|  1.6918e-01|   -3.542771|    0.815874|    0.015053|  2.5334e+01|  3.0654e+01|  3.0651e+01|
|         376|  1.6908e-01|   -3.547816|    0.815486|    0.015546|  2.5334e+01|  3.0654e+01|  3.0651e+01|
|         377|  1.6902e-01|   -3.562096|    0.814994|    0.016062|  2.5334e+01|  3.0654e+01|  3.0651e+01|
|         378|  1.6892e-01|   -3.570935|    0.814399|    0.016598|  2.5334e+01|  3.0654e+01|  3.0651e+01|
|         379|  1.6882e-01|   -3.583977|    0.813719|    0.017150|  2.5334e+01|  3.0654e+01|  3.0651e+01|
|         380|  1.6873e-01|   -3.589777|    0.812958|    0.017711|  2.5334e+01|  3.0654e+01|  3.0651e+01|
|         381|  1.6863e-01|   -3.599975|    0.812118|    0.018278|  2.5334e+01|  3.0654e+01|  3.0651e+01|
|         382|  1.6853e-01|   -3.607108|    0.811187|    0.018844|  2.7867e+01|  3.3720e+01|  3.3716e+01|
|         383|  1.6875e-01|   -3.609447|    0.810065|    0.019462|  1.3934e+01|  1.6860e+01|  1.6858e+01|
|         384|  1.6899e-01|   -3.612754|    0.809478|    0.019768|  1.5327e+01|  1.8546e+01|  1.8544e+01|
|         385|  1.6888e-01|   -3.641889|    0.808807|    0.020103|  1.6860e+01|  2.0400e+01|  2.0398e+01|
|         386|  1.6879e-01|   -3.657929|    0.808044|    0.020466|  1.8546e+01|  2.2440e+01|  2.2438e+01|
|         387|  1.6869e-01|   -3.663629|    0.807175|    0.020858|  2.0400e+01|  2.4684e+01|  2.4682e+01|
|         388|  1.6860e-01|   -3.665590|    0.806181|    0.021277|  2.2440e+01|  2.7153e+01|  2.7150e+01|
|         389|  1.6850e-01|   -3.670426|    0.805048|    0.021722|  2.4684e+01|  2.9868e+01|  2.9865e+01|
|         390|  1.6841e-01|   -3.673173|    0.803767|    0.022188|  2.7153e+01|  3.2855e+01|  3.2852e+01|
|         391|  1.6831e-01|   -3.670706|    0.802333|    0.022668|  1.3576e+01|  1.6427e+01|  1.6426e+01|
|         392|  1.6852e-01|   -3.662482|    0.801622|    0.022900|  1.4934e+01|  1.8070e+01|  1.8068e+01|
|         393|  1.6897e-01|   -3.691003|    0.800827|    0.023145|  1.6427e+01|  1.9877e+01|  1.9875e+01|
|         394|  1.6886e-01|   -3.700420|    0.799940|    0.023399|  1.8070e+01|  2.1865e+01|  2.1863e+01|
|         395|  1.6877e-01|   -3.700752|    0.798951|    0.023660|  1.9877e+01|  2.4051e+01|  2.4049e+01|
|         396|  1.6867e-01|   -3.699214|    0.797855|    0.023924|  2.1865e+01|  2.6457e+01|  2.6454e+01|
|         397|  1.6858e-01|   -3.697279|    0.796650|    0.024185|  2.4051e+01|  2.9102e+01|  2.9099e+01|
|         398|  1.6850e-01|   -3.696410|    0.795330|    0.024433|  2.6457e+01|  3.2013e+01|  3.2009e+01|
|         399|  1.6840e-01|   -3.695176|    0.793903|    0.024660|  2.6457e+01|  3.2013e+01|  3.2009e+01|
|         400|  1.6831e-01|   -3.695151|    0.792503|    0.024838|  2.6457e+01|  3.2013e+01|  3.2009e+01|
|         401|  1.6822e-01|   -3.697447|    0.791140|    0.024968|  2.6457e+01|  3.2013e+01|  3.2009e+01|
|         402|  1.6813e-01|   -3.700445|    0.789821|    0.025050|  2.6457e+01|  3.2013e+01|  3.2009e+01|
|         403|  1.6804e-01|   -3.701588|    0.788554|    0.025083|  2.6457e+01|  3.2013e+01|  3.2009e+01|
|         404|  1.6840e-01|   -3.707836|    0.787363|    0.025069|  2.6457e+01|  3.2013e+01|  3.2009e+01|
|         405|  1.6896e-01|   -3.716366|    0.786248|    0.025007|  2.6457e+01|  3.2013e+01|  3.2009e+01|
|         406|  1.6897e-01|   -3.724687|    0.785215|    0.024901|  1.3228e+01|  1.6006e+01|  1.6005e+01|
|         407|  1.6887e-01|   -3.730418|    0.784725|    0.024838|  1.4551e+01|  1.7607e+01|  1.7605e+01|
|         408|  1.6878e-01|   -3.737954|    0.784211|    0.024756|  1.6006e+01|  1.9368e+01|  1.9366e+01|
|         409|  1.6870e-01|   -3.743119|    0.783676|    0.024648|  1.7607e+01|  2.1304e+01|  2.1302e+01|
|         410|  1.6861e-01|   -3.746355|    0.783133|    0.024512|  1.9368e+01|  2.3435e+01|  2.3433e+01|
|         411|  1.6852e-01|   -3.749178|    0.782590|    0.024341|  2.1304e+01|  2.5778e+01|  2.5776e+01|
|         412|  1.6843e-01|   -3.751060|    0.782063|    0.024127|  2.3435e+01|  2.8356e+01|  2.8353e+01|
|         413|  1.6835e-01|   -3.752255|    0.781569|    0.023864|  2.5778e+01|  3.1192e+01|  3.1189e+01|
|         414|  1.6826e-01|   -3.748287|    0.781125|    0.023543|  2.5778e+01|  3.1192e+01|  3.1189e+01|
|         415|  1.6845e-01|   -3.747419|    0.780773|    0.023195|  2.5778e+01|  3.1192e+01|  3.1189e+01|
|         416|  1.6899e-01|   -3.741486|    0.780520|    0.022823|  2.5778e+01|  3.1192e+01|  3.1189e+01|
|         417|  1.6930e-01|   -3.744175|    0.780374|    0.022430|  2.5778e+01|  3.1192e+01|  3.1189e+01|
|         418|  1.6919e-01|   -3.736626|    0.780333|    0.022020|  2.5778e+01|  3.1192e+01|  3.1189e+01|
|         419|  1.6911e-01|   -3.735951|    0.780399|    0.021597|  2.5778e+01|  3.1192e+01|  3.1189e+01|
|         420|  1.6902e-01|   -3.727711|    0.780566|    0.021164|  2.5778e+01|  3.1192e+01|  3.1189e+01|
|         421|  1.6893e-01|   -3.720087|    0.780829|    0.020726|  2.5778e+01|  3.1192e+01|  3.1189e+01|
|         422|  1.6885e-01|   -3.721097|    0.781183|    0.020287|  2.5778e+01|  3.1192e+01|  3.1189e+01|
|         423|  1.6877e-01|   -3.726908|    0.781622|    0.019848|  2.5778e+01|  3.1192e+01|  3.1189e+01|
|         424|  1.6868e-01|   -3.728316|    0.782146|    0.019414|  2.5778e+01|  3.1192e+01|  3.1189e+01|
|         425|  1.6859e-01|   -3.726595|    0.782749|    0.018988|  2.5778e+01|  3.1192e+01|  3.1189e+01|
|         426|  1.6871e-01|   -3.722548|    0.783418|    0.018574|  2.5778e+01|  3.1192e+01|  3.1189e+01|
|         427|  1.6923e-01|   -3.721141|    0.784144|    0.018174|  2.5778e+01|  3.1192e+01|  3.1189e+01|
|         428|  1.6940e-01|   -3.727624|    0.784926|    0.017791|  2.5778e+01|  3.1192e+01|  3.1189e+01|
|         429|  1.6930e-01|   -3.741658|    0.785754|    0.017428|  2.5778e+01|  3.1192e+01|  3.1189e+01|
|         430|  1.6921e-01|   -3.729176|    0.786615|    0.017086|  2.5778e+01|  3.1192e+01|  3.1189e+01|
|         431|  1.6913e-01|   -3.731012|    0.787509|    0.016768|  2.5778e+01|  3.1192e+01|  3.1189e+01|
|         432|  1.6904e-01|   -3.735876|    0.788437|    0.016477|  2.5778e+01|  3.1192e+01|  3.1189e+01|
|         433|  1.6896e-01|   -3.734643|    0.789381|    0.016212|  2.5778e+01|  3.1192e+01|  3.1189e+01|
|         434|  1.6887e-01|   -3.736206|    0.790325|    0.015975|  2.8356e+01|  3.4311e+01|  3.4308e+01|
|         435|  1.6879e-01|   -3.733294|    0.791369|    0.015749|  1.4178e+01|  1.7155e+01|  1.7154e+01|
|         436|  1.6870e-01|   -3.738946|    0.791897|    0.015644|  1.5596e+01|  1.8871e+01|  1.8869e+01|
|         437|  1.6883e-01|   -3.760194|    0.792477|    0.015539|  1.7155e+01|  2.0758e+01|  2.0756e+01|
|         438|  1.6934e-01|   -3.765029|    0.793114|    0.015439|  1.8871e+01|  2.2834e+01|  2.2832e+01|
|         439|  1.6927e-01|   -3.768960|    0.793809|    0.015344|  2.0758e+01|  2.5117e+01|  2.5115e+01|
|         440|  1.6919e-01|   -3.764609|    0.794560|    0.015260|  2.2834e+01|  2.7629e+01|  2.7626e+01|
|         441|  1.6910e-01|   -3.766363|    0.795359|    0.015191|  2.5117e+01|  3.0392e+01|  3.0389e+01|
|         442|  1.6902e-01|   -3.759134|    0.796196|    0.015142|  2.7629e+01|  3.3431e+01|  3.3428e+01|
|         443|  1.6893e-01|   -3.749213|    0.797068|    0.015121|  2.7629e+01|  3.3431e+01|  3.3428e+01|
|         444|  1.6885e-01|   -3.747513|    0.797894|    0.015131|  2.7629e+01|  3.3431e+01|  3.3428e+01|
|         445|  1.6883e-01|   -3.740575|    0.798663|    0.015172|  2.7629e+01|  3.3431e+01|  3.3428e+01|
|         446|  1.6933e-01|   -3.736506|    0.799370|    0.015241|  2.7629e+01|  3.3431e+01|  3.3428e+01|
|         447|  1.6940e-01|   -3.734277|    0.800022|    0.015338|  1.3814e+01|  1.6716e+01|  1.6714e+01|
|         448|  1.6931e-01|   -3.731332|    0.800336|    0.015392|  1.5196e+01|  1.8387e+01|  1.8385e+01|
|         449|  1.6922e-01|   -3.745597|    0.800662|    0.015460|  1.6716e+01|  2.0226e+01|  2.0224e+01|
|         450|  1.6914e-01|   -3.746194|    0.800994|    0.015543|  1.8387e+01|  2.2248e+01|  2.2246e+01|
|         451|  1.6906e-01|   -3.745005|    0.801321|    0.015645|  2.0226e+01|  2.4473e+01|  2.4471e+01|
|         452|  1.6897e-01|   -3.741722|    0.801630|    0.015768|  2.2248e+01|  2.6921e+01|  2.6918e+01|
|         453|  1.6889e-01|   -3.739826|    0.801910|    0.015915|  2.4473e+01|  2.9613e+01|  2.9610e+01|
|         454|  1.6881e-01|   -3.738870|    0.802147|    0.016089|  2.4473e+01|  2.9613e+01|  2.9610e+01|
|         455|  1.6873e-01|   -3.735061|    0.802317|    0.016274|  2.4473e+01|  2.9613e+01|  2.9610e+01|
|         456|  1.6905e-01|   -3.735570|    0.802420|    0.016467|  2.4473e+01|  2.9613e+01|  2.9610e+01|
|         457|  1.6932e-01|   -3.736176|    0.802463|    0.016669|  2.4473e+01|  2.9613e+01|  2.9610e+01|
|         458|  1.6922e-01|   -3.737627|    0.802439|    0.016875|  2.4473e+01|  2.9613e+01|  2.9610e+01|
|         459|  1.6914e-01|   -3.737290|    0.802343|    0.017084|  2.4473e+01|  2.9613e+01|  2.9610e+01|
|         460|  1.6906e-01|   -3.737930|    0.802181|    0.017293|  1.2237e+01|  1.4806e+01|  1.4805e+01|
|         461|  1.6898e-01|   -3.738499|    0.802085|    0.017397|  1.3460e+01|  1.6287e+01|  1.6285e+01|
|         462|  1.6890e-01|   -3.745176|    0.801962|    0.017512|  1.4806e+01|  1.7916e+01|  1.7914e+01|
|         463|  1.6882e-01|   -3.748555|    0.801808|    0.017638|  1.6287e+01|  1.9707e+01|  1.9705e+01|
|         464|  1.6874e-01|   -3.748347|    0.801610|    0.017774|  1.7916e+01|  2.1678e+01|  2.1676e+01|
|         465|  1.6902e-01|   -3.748156|    0.801355|    0.017922|  1.9707e+01|  2.3846e+01|  2.3843e+01|
|         466|  1.6917e-01|   -3.748716|    0.801034|    0.018080|  2.1678e+01|  2.6230e+01|  2.6228e+01|
|         467|  1.6908e-01|   -3.746721|    0.800636|    0.018249|  2.3846e+01|  2.8853e+01|  2.8850e+01|
|         468|  1.6900e-01|   -3.745591|    0.800149|    0.018425|  2.3846e+01|  2.8853e+01|  2.8850e+01|
|         469|  1.6892e-01|   -3.745863|    0.799615|    0.018593|  2.3846e+01|  2.8853e+01|  2.8850e+01|
|         470|  1.6885e-01|   -3.743998|    0.799035|    0.018749|  2.3846e+01|  2.8853e+01|  2.8850e+01|
|         471|  1.6877e-01|   -3.745565|    0.798408|    0.018892|  2.3846e+01|  2.8853e+01|  2.8850e+01|
|         472|  1.6869e-01|   -3.740439|    0.797734|    0.019021|  2.3846e+01|  2.8853e+01|  2.8850e+01|
|         473|  1.6861e-01|   -3.742770|    0.797018|    0.019135|  2.6230e+01|  3.1739e+01|  3.1736e+01|
|         474|  1.6853e-01|   -3.741149|    0.796185|    0.019240|  1.3115e+01|  1.5869e+01|  1.5868e+01|
|         475|  1.6883e-01|   -3.736209|    0.795761|    0.019288|  1.4427e+01|  1.7456e+01|  1.7455e+01|
|         476|  1.6907e-01|   -3.746248|    0.795279|    0.019335|  1.5869e+01|  1.9202e+01|  1.9200e+01|
|         477|  1.6898e-01|   -3.748938|    0.794732|    0.019378|  1.7456e+01|  2.1122e+01|  2.1120e+01|
|         478|  1.6890e-01|   -3.745729|    0.794112|    0.019416|  1.9202e+01|  2.3234e+01|  2.3232e+01|
|         479|  1.6882e-01|   -3.741751|    0.793413|    0.019445|  2.1122e+01|  2.5558e+01|  2.5555e+01|
|         480|  1.6875e-01|   -3.738520|    0.792629|    0.019464|  2.3234e+01|  2.8113e+01|  2.8111e+01|
|         481|  1.6867e-01|   -3.730125|    0.791752|    0.019467|  2.5558e+01|  3.0925e+01|  3.0922e+01|
|         482|  1.6860e-01|   -3.721824|    0.790773|    0.019450|  2.8113e+01|  3.4017e+01|  3.4014e+01|
|         483|  1.6852e-01|   -3.717407|    0.789685|    0.019407|  1.4057e+01|  1.7009e+01|  1.7007e+01|
|         484|  1.6844e-01|   -3.708646|    0.789143|    0.019381|  1.5462e+01|  1.8709e+01|  1.8708e+01|
|         485|  1.6857e-01|   -3.710579|    0.788544|    0.019344|  1.7009e+01|  2.0580e+01|  2.0578e+01|
|         486|  1.6896e-01|   -3.711202|    0.787885|    0.019295|  1.8709e+01|  2.2638e+01|  2.2636e+01|
|         487|  1.6888e-01|   -3.704731|    0.787161|    0.019230|  9.3547e+00|  1.1319e+01|  1.1318e+01|
|         488|  1.6880e-01|   -3.698805|    0.786801|    0.019196|  1.0290e+01|  1.2451e+01|  1.2450e+01|
|         489|  1.6873e-01|   -3.698872|    0.786405|    0.019155|  1.1319e+01|  1.3696e+01|  1.3695e+01|
|         490|  1.6865e-01|   -3.696466|    0.785971|    0.019107|  1.2451e+01|  1.5066e+01|  1.5064e+01|
|         491|  1.6858e-01|   -3.692755|    0.785496|    0.019049|  1.3696e+01|  1.6572e+01|  1.6571e+01|
|         492|  1.6851e-01|   -3.687442|    0.784978|    0.018981|  1.5066e+01|  1.8230e+01|  1.8228e+01|
|         493|  1.6844e-01|   -3.681831|    0.784417|    0.018901|  1.6572e+01|  2.0053e+01|  2.0051e+01|
|         494|  1.6837e-01|   -3.676617|    0.783813|    0.018807|  1.8230e+01|  2.2058e+01|  2.2056e+01|
|         495|  1.6874e-01|   -3.671211|    0.783165|    0.018697|  2.0053e+01|  2.4264e+01|  2.4261e+01|
|         496|  1.6888e-01|   -3.665387|    0.782473|    0.018569|  2.2058e+01|  2.6690e+01|  2.6688e+01|
|         497|  1.6880e-01|   -3.659765|    0.781737|    0.018420|  2.4264e+01|  2.9359e+01|  2.9356e+01|
|         498|  1.6873e-01|   -3.654692|    0.780962|    0.018248|  2.6690e+01|  3.2295e+01|  3.2292e+01|
|         499|  1.6865e-01|   -3.649403|    0.780151|    0.018050|  1.3345e+01|  1.6148e+01|  1.6146e+01|
|         500|  1.6858e-01|   -3.643416|    0.779756|    0.017951|  1.4680e+01|  1.7762e+01|  1.7761e+01|
+-----------------------------------------------------------------------+
|        File Writing Summary       |              Filename             |
+-----------------------------------------------------------------------+
|SU2 binary restart                 |restart_flow.dat                   |

Writing the forces breakdown file (forces_breakdown.dat).
|Paraview                           |flow.vtu                           |

Writing the forces breakdown file (forces_breakdown.dat).
|Paraview surface                   |surface_flow.vtu                   |

Writing the forces breakdown file (forces_breakdown.dat).
+-----------------------------------------------------------------------+
+-------------------------------------------------------------------------------------------------------+
|  Inner_Iter|   Time(sec)|    rms[Rho]|          CL|          CD|     Min CFL|     Max CFL|     Avg CFL|
+-------------------------------------------------------------------------------------------------------+
|         501|  1.6868e-01|   -3.644303|    0.779335|    0.017839|  1.6148e+01|  1.9539e+01|  1.9537e+01|
|         502|  1.6861e-01|   -3.643398|    0.778888|    0.017715|  1.7762e+01|  2.1492e+01|  2.1490e+01|
|         503|  1.6854e-01|   -3.640855|    0.778421|    0.017577|  1.9539e+01|  2.3642e+01|  2.3639e+01|
|         504|  1.6846e-01|   -3.638520|    0.777936|    0.017425|  2.1492e+01|  2.6006e+01|  2.6003e+01|
|         505|  1.6839e-01|   -3.636441|    0.777438|    0.017259|  2.3642e+01|  2.8606e+01|  2.8604e+01|
|         506|  1.6832e-01|   -3.634523|    0.776937|    0.017079|  2.6006e+01|  3.1467e+01|  3.1464e+01|
|         507|  1.6825e-01|   -3.632958|    0.776439|    0.016885|  1.3003e+01|  1.5734e+01|  1.5732e+01|
|         508|  1.6839e-01|   -3.632005|    0.776203|    0.016789|  1.4303e+01|  1.7307e+01|  1.7305e+01|
|         509|  1.6859e-01|   -3.635028|    0.775959|    0.016686|  1.5734e+01|  1.9038e+01|  1.9036e+01|
|         510|  1.6851e-01|   -3.637137|    0.775708|    0.016575|  1.7307e+01|  2.0941e+01|  2.0939e+01|
|         511|  1.6844e-01|   -3.637235|    0.775454|    0.016457|  8.6534e+00|  1.0471e+01|  1.0470e+01|
|         512|  1.6837e-01|   -3.637603|    0.775331|    0.016399|  9.5188e+00|  1.1518e+01|  1.1517e+01|
|         513|  1.6830e-01|   -3.640388|    0.775204|    0.016337|  1.0471e+01|  1.2669e+01|  1.2668e+01|
|         514|  1.6822e-01|   -3.642525|    0.775072|    0.016270|  1.1518e+01|  1.3936e+01|  1.3935e+01|
|         515|  1.6815e-01|   -3.643421|    0.774937|    0.016200|  1.2669e+01|  1.5330e+01|  1.5329e+01|
|         516|  1.6808e-01|   -3.644143|    0.774800|    0.016125|  1.3936e+01|  1.6863e+01|  1.6861e+01|
|         517|  1.6801e-01|   -3.644814|    0.774663|    0.016046|  1.5330e+01|  1.8549e+01|  1.8548e+01|
|         518|  1.6795e-01|   -3.645836|    0.774528|    0.015965|  1.6863e+01|  2.0404e+01|  2.0402e+01|
|         519|  1.6788e-01|   -3.643347|    0.774399|    0.015881|  1.8549e+01|  2.2445e+01|  2.2443e+01|
|         520|  1.6823e-01|   -3.645922|    0.774276|    0.015797|  2.0404e+01|  2.4689e+01|  2.4687e+01|
|         521|  1.6834e-01|   -3.646611|    0.774164|    0.015714|  2.2445e+01|  2.7158e+01|  2.7156e+01|
|         522|  1.6827e-01|   -3.645952|    0.774066|    0.015635|  2.4689e+01|  2.9874e+01|  2.9871e+01|
|         523|  1.6821e-01|   -3.640753|    0.773989|    0.015564|  2.4689e+01|  2.9874e+01|  2.9871e+01|
|         524|  1.6814e-01|   -3.647922|    0.773937|    0.015509|  2.4689e+01|  2.9874e+01|  2.9871e+01|
|         525|  1.6807e-01|   -3.649501|    0.773907|    0.015471|  2.4689e+01|  2.9874e+01|  2.9871e+01|
|         526|  1.6800e-01|   -3.656361|    0.773900|    0.015448|  2.4689e+01|  2.9874e+01|  2.9871e+01|
|         527|  1.6794e-01|   -3.664549|    0.773912|    0.015442|  2.7158e+01|  3.2861e+01|  3.2858e+01|
|         528|  1.6787e-01|   -3.662713|    0.773944|    0.015455|  1.3579e+01|  1.6431e+01|  1.6429e+01|
|         529|  1.6780e-01|   -3.661626|    0.773965|    0.015465|  1.4937e+01|  1.8074e+01|  1.8072e+01|
|         530|  1.6773e-01|   -3.678189|    0.773990|    0.015482|  1.6431e+01|  1.9881e+01|  1.9879e+01|
|         531|  1.6767e-01|   -3.685789|    0.774022|    0.015509|  1.8074e+01|  2.1869e+01|  2.1867e+01|
|         532|  1.6760e-01|   -3.682191|    0.774063|    0.015545|  1.9881e+01|  2.4056e+01|  2.4054e+01|
|         533|  1.6753e-01|   -3.676124|    0.774113|    0.015595|  2.1869e+01|  2.6462e+01|  2.6459e+01|
|         534|  1.6747e-01|   -3.671873|    0.774171|    0.015659|  2.4056e+01|  2.9108e+01|  2.9105e+01|
|         535|  1.6793e-01|   -3.664690|    0.774239|    0.015741|  2.6462e+01|  3.2019e+01|  3.2016e+01|
|         536|  1.6787e-01|   -3.657676|    0.774315|    0.015844|  2.6462e+01|  3.2019e+01|  3.2016e+01|
|         537|  1.6780e-01|   -3.648488|    0.774390|    0.015957|  2.9108e+01|  3.5221e+01|  3.5217e+01|
|         538|  1.6774e-01|   -3.640175|    0.774465|    0.016093|  1.4554e+01|  1.7610e+01|  1.7609e+01|
|         539|  1.6768e-01|   -3.634231|    0.774503|    0.016163|  1.6009e+01|  1.9371e+01|  1.9369e+01|
|         540|  1.6761e-01|   -3.653106|    0.774542|    0.016244|  1.7610e+01|  2.1308e+01|  2.1306e+01|
|         541|  1.6755e-01|   -3.657383|    0.774579|    0.016335|  1.9371e+01|  2.3439e+01|  2.3437e+01|
|         542|  1.6749e-01|   -3.651610|    0.774615|    0.016439|  2.1308e+01|  2.5783e+01|  2.5781e+01|
|         543|  1.6742e-01|   -3.646329|    0.774648|    0.016555|  2.3439e+01|  2.8362e+01|  2.8359e+01|
|         544|  1.6736e-01|   -3.634135|    0.774677|    0.016685|  2.5783e+01|  3.1198e+01|  3.1195e+01|
|         545|  1.6730e-01|   -3.627300|    0.774701|    0.016830|  2.8362e+01|  3.4318e+01|  3.4314e+01|
|         546|  1.6724e-01|   -3.619487|    0.774714|    0.016988|  1.4181e+01|  1.7159e+01|  1.7157e+01|
|         547|  1.6718e-01|   -3.614607|    0.774721|    0.017066|  1.5599e+01|  1.8875e+01|  1.8873e+01|
|         548|  1.6730e-01|   -3.623670|    0.774724|    0.017151|  1.7159e+01|  2.0762e+01|  2.0760e+01|
|         549|  1.6754e-01|   -3.625772|    0.774722|    0.017244|  1.8875e+01|  2.2838e+01|  2.2836e+01|
|         550|  1.6747e-01|   -3.621531|    0.774713|    0.017344|  2.0762e+01|  2.5122e+01|  2.5120e+01|
|         551|  1.6740e-01|   -3.619263|    0.774695|    0.017450|  2.2838e+01|  2.7634e+01|  2.7632e+01|
|         552|  1.6734e-01|   -3.616727|    0.774663|    0.017561|  2.5122e+01|  3.0398e+01|  3.0395e+01|
|         553|  1.6728e-01|   -3.615167|    0.774612|    0.017675|  2.5122e+01|  3.0398e+01|  3.0395e+01|
|         554|  1.6722e-01|   -3.616750|    0.774547|    0.017780|  2.5122e+01|  3.0398e+01|  3.0395e+01|
|         555|  1.6716e-01|   -3.620264|    0.774469|    0.017875|  2.5122e+01|  3.0398e+01|  3.0395e+01|
|         556|  1.6710e-01|   -3.624957|    0.774379|    0.017959|  2.5122e+01|  3.0398e+01|  3.0395e+01|
|         557|  1.6704e-01|   -3.631842|    0.774275|    0.018032|  2.5122e+01|  3.0398e+01|  3.0395e+01|
|         558|  1.6698e-01|   -3.639706|    0.774161|    0.018092|  2.5122e+01|  3.0398e+01|  3.0395e+01|
|         559|  1.6692e-01|   -3.646944|    0.774037|    0.018140|  2.5122e+01|  3.0398e+01|  3.0395e+01|
|         560|  1.6686e-01|   -3.657607|    0.773904|    0.018174|  2.5122e+01|  3.0398e+01|  3.0395e+01|
|         561|  1.6680e-01|   -3.666329|    0.773762|    0.018195|  2.5122e+01|  3.0398e+01|  3.0395e+01|
|         562|  1.6680e-01|   -3.677209|    0.773615|    0.018201|  2.5122e+01|  3.0398e+01|  3.0395e+01|
|         563|  1.6718e-01|   -3.689223|    0.773463|    0.018194|  2.5122e+01|  3.0398e+01|  3.0395e+01|
|         564|  1.6722e-01|   -3.700929|    0.773307|    0.018173|  2.5122e+01|  3.0398e+01|  3.0395e+01|
|         565|  1.6715e-01|   -3.712755|    0.773149|    0.018138|  2.5122e+01|  3.0398e+01|  3.0395e+01|
|         566|  1.6709e-01|   -3.724546|    0.772986|    0.018090|  2.5122e+01|  3.0398e+01|  3.0395e+01|
|         567|  1.6703e-01|   -3.735326|    0.772818|    0.018028|  2.5122e+01|  3.0398e+01|  3.0395e+01|
|         568|  1.6697e-01|   -3.746937|    0.772646|    0.017953|  2.5122e+01|  3.0398e+01|  3.0395e+01|
|         569|  1.6691e-01|   -3.759587|    0.772467|    0.017864|  2.5122e+01|  3.0398e+01|  3.0395e+01|
|         570|  1.6685e-01|   -3.770157|    0.772283|    0.017764|  2.5122e+01|  3.0398e+01|  3.0395e+01|
|         571|  1.6679e-01|   -3.779645|    0.772095|    0.017652|  2.7634e+01|  3.3438e+01|  3.3434e+01|
|         572|  1.6673e-01|   -3.788898|    0.771885|    0.017515|  1.3817e+01|  1.6719e+01|  1.6717e+01|
|         573|  1.6668e-01|   -3.795424|    0.771780|    0.017445|  1.5199e+01|  1.8391e+01|  1.8389e+01|
|         574|  1.6662e-01|   -3.807757|    0.771664|    0.017364|  1.6719e+01|  2.0230e+01|  2.0228e+01|
|         575|  1.6667e-01|   -3.812823|    0.771534|    0.017270|  1.8391e+01|  2.2253e+01|  2.2251e+01|
|         576|  1.6705e-01|   -3.812458|    0.771391|    0.017163|  2.0230e+01|  2.4478e+01|  2.4476e+01|
|         577|  1.6722e-01|   -3.811542|    0.771231|    0.017040|  2.2253e+01|  2.6926e+01|  2.6923e+01|
|         578|  1.6715e-01|   -3.810308|    0.771054|    0.016899|  2.4478e+01|  2.9618e+01|  2.9616e+01|
|         579|  1.6709e-01|   -3.807948|    0.770857|    0.016740|  2.6926e+01|  3.2580e+01|  3.2577e+01|
|         580|  1.6703e-01|   -3.805160|    0.770639|    0.016561|  2.6926e+01|  3.2580e+01|  3.2577e+01|
|         581|  1.6697e-01|   -3.801683|    0.770420|    0.016379|  2.6926e+01|  3.2580e+01|  3.2577e+01|
|         582|  1.6692e-01|   -3.797442|    0.770198|    0.016196|  2.9618e+01|  3.5838e+01|  3.5835e+01|
|         583|  1.6686e-01|   -3.791294|    0.769952|    0.015996|  1.4809e+01|  1.7919e+01|  1.7917e+01|
|         584|  1.6680e-01|   -3.779635|    0.769828|    0.015897|  1.6290e+01|  1.9711e+01|  1.9709e+01|
|         585|  1.6674e-01|   -3.781610|    0.769691|    0.015788|  1.7919e+01|  2.1682e+01|  2.1680e+01|
|         586|  1.6669e-01|   -3.780384|    0.769539|    0.015670|  1.9711e+01|  2.3850e+01|  2.3848e+01|
|         587|  1.6684e-01|   -3.776500|    0.769371|    0.015542|  2.1682e+01|  2.6235e+01|  2.6233e+01|
|         588|  1.6717e-01|   -3.772468|    0.769185|    0.015406|  2.3850e+01|  2.8859e+01|  2.8856e+01|
|         589|  1.6711e-01|   -3.769051|    0.768978|    0.015261|  2.6235e+01|  3.1745e+01|  3.1742e+01|
|         590|  1.6705e-01|   -3.766195|    0.768748|    0.015110|  1.3118e+01|  1.5872e+01|  1.5871e+01|
|         591|  1.6699e-01|   -3.764275|    0.768631|    0.015036|  1.4429e+01|  1.7460e+01|  1.7458e+01|
|         592|  1.6694e-01|   -3.765148|    0.768502|    0.014958|  1.5872e+01|  1.9206e+01|  1.9204e+01|
|         593|  1.6688e-01|   -3.765311|    0.768358|    0.014875|  1.7460e+01|  2.1126e+01|  2.1124e+01|
|         594|  1.6682e-01|   -3.765390|    0.768197|    0.014789|  1.9206e+01|  2.3239e+01|  2.3237e+01|
|         595|  1.6676e-01|   -3.765983|    0.768017|    0.014699|  2.1126e+01|  2.5563e+01|  2.5560e+01|
|         596|  1.6671e-01|   -3.767373|    0.767817|    0.014609|  2.3239e+01|  2.8119e+01|  2.8116e+01|
|         597|  1.6665e-01|   -3.769756|    0.767592|    0.014520|  2.5563e+01|  3.0931e+01|  3.0928e+01|
|         598|  1.6659e-01|   -3.773221|    0.767340|    0.014434|  1.2781e+01|  1.5465e+01|  1.5464e+01|
|         599|  1.6657e-01|   -3.778339|    0.767213|    0.014394|  1.4059e+01|  1.7012e+01|  1.7010e+01|
|         600|  1.6694e-01|   -3.782273|    0.767070|    0.014354|  1.5465e+01|  1.8713e+01|  1.8711e+01|
|         601|  1.6710e-01|   -3.786643|    0.766910|    0.014314|  1.7012e+01|  2.0584e+01|  2.0582e+01|
|         602|  1.6703e-01|   -3.791096|    0.766731|    0.014278|  1.8713e+01|  2.2643e+01|  2.2641e+01|
|         603|  1.6698e-01|   -3.796167|    0.766531|    0.014245|  2.0584e+01|  2.4907e+01|  2.4905e+01|
|         604|  1.6692e-01|   -3.802284|    0.766306|    0.014217|  2.2643e+01|  2.7398e+01|  2.7395e+01|
|         605|  1.6686e-01|   -3.809629|    0.766055|    0.014198|  2.4907e+01|  3.0138e+01|  3.0135e+01|
|         606|  1.6681e-01|   -3.818109|    0.765771|    0.014191|  2.4907e+01|  3.0138e+01|  3.0135e+01|
|         607|  1.6675e-01|   -3.828002|    0.765481|    0.014196|  2.4907e+01|  3.0138e+01|  3.0135e+01|
|         608|  1.6670e-01|   -3.839151|    0.765183|    0.014214|  2.4907e+01|  3.0138e+01|  3.0135e+01|
|         609|  1.6664e-01|   -3.849954|    0.764877|    0.014245|  2.4907e+01|  3.0138e+01|  3.0135e+01|
|         610|  1.6659e-01|   -3.861124|    0.764563|    0.014287|  2.4907e+01|  3.0138e+01|  3.0135e+01|
|         611|  1.6654e-01|   -3.870961|    0.764241|    0.014340|  2.4907e+01|  3.0138e+01|  3.0135e+01|
|         612|  1.6690e-01|   -3.882855|    0.763913|    0.014405|  2.7398e+01|  3.3151e+01|  3.3148e+01|
|         613|  1.6704e-01|   -3.900727|    0.763542|    0.014488|  1.3699e+01|  1.6576e+01|  1.6574e+01|
|         614|  1.6698e-01|   -3.915668|    0.763355|    0.014532|  1.5069e+01|  1.8233e+01|  1.8232e+01|
|         615|  1.6692e-01|   -3.933675|    0.763146|    0.014584|  1.6576e+01|  2.0057e+01|  2.0055e+01|
|         616|  1.6686e-01|   -3.943316|    0.762913|    0.014645|  1.8233e+01|  2.2062e+01|  2.2060e+01|
|         617|  1.6681e-01|   -3.946182|    0.762653|    0.014717|  2.0057e+01|  2.4269e+01|  2.4266e+01|
|         618|  1.6675e-01|   -3.948133|    0.762364|    0.014801|  2.2062e+01|  2.6695e+01|  2.6693e+01|
|         619|  1.6670e-01|   -3.950215|    0.762042|    0.014898|  2.4269e+01|  2.9365e+01|  2.9362e+01|
|         620|  1.6664e-01|   -3.950701|    0.761683|    0.015011|  2.6695e+01|  3.2301e+01|  3.2298e+01|
|         621|  1.6659e-01|   -3.948099|    0.761283|    0.015140|  2.6695e+01|  3.2301e+01|  3.2298e+01|
|         622|  1.6668e-01|   -3.943113|    0.760880|    0.015273|  2.6695e+01|  3.2301e+01|  3.2298e+01|
[...]
|        2718|  1.6282e-01|   -6.526181|    0.699308|    0.013522|  4.6838e+00|  4.6838e+00|  4.6838e+00|
|        2719|  1.6280e-01|   -6.631796|    0.699308|    0.013522|  2.3419e+00|  2.3419e+00|  2.3419e+00|
|        2720|  1.6278e-01|   -6.704277|    0.699308|    0.013522|  1.1709e+00|  1.1709e+00|  1.1709e+00|
|        2721|  1.6276e-01|   -6.741907|    0.699308|    0.013522|  1.0000e+00|  1.0000e+00|  1.0000e+00|
|        2722|  1.6274e-01|   -6.758198|    0.699308|    0.013522|  1.0000e+00|  1.0000e+00|  1.0000e+00|
|        2723|  1.6271e-01|   -6.768586|    0.699308|    0.013522|  1.0000e+00|  1.0000e+00|  1.0000e+00|
|        2724|  1.6269e-01|   -6.777083|    0.699307|    0.013522|  1.0000e+00|  1.0000e+00|  1.0000e+00|
|        2725|  1.6267e-01|   -6.784650|    0.699307|    0.013522|  1.0000e+00|  1.0000e+00|  1.0000e+00|
|        2726|  1.6265e-01|   -6.791560|    0.699307|    0.013522|  1.1000e+00|  1.1000e+00|  1.1000e+00|
|        2727|  1.6262e-01|   -6.798127|    0.699307|    0.013522|  1.2100e+00|  1.2100e+00|  1.2100e+00|
|        2728|  1.6260e-01|   -6.804653|    0.699307|    0.013522|  1.3310e+00|  1.3310e+00|  1.3310e+00|
|        2729|  1.6257e-01|   -6.810964|    0.699307|    0.013522|  1.4641e+00|  1.4641e+00|  1.4641e+00|
|        2730|  1.6255e-01|   -6.816984|    0.699307|    0.013522|  1.6105e+00|  1.6105e+00|  1.6105e+00|
|        2731|  1.6253e-01|   -6.823024|    0.699307|    0.013522|  1.7716e+00|  1.7716e+00|  1.7716e+00|
|        2732|  1.6256e-01|   -6.829211|    0.699307|    0.013522|  1.9487e+00|  1.9487e+00|  1.9487e+00|
|        2733|  1.6261e-01|   -6.835296|    0.699307|    0.013522|  2.1436e+00|  2.1436e+00|  2.1436e+00|
|        2734|  1.6259e-01|   -6.841236|    0.699307|    0.013522|  2.3579e+00|  2.3579e+00|  2.3579e+00|
|        2735|  1.6256e-01|   -6.846938|    0.699307|    0.013522|  2.5937e+00|  2.5937e+00|  2.5937e+00|
|        2736|  1.6254e-01|   -6.852355|    0.699307|    0.013522|  2.8531e+00|  2.8531e+00|  2.8531e+00|
|        2737|  1.6252e-01|   -6.857461|    0.699307|    0.013522|  3.1384e+00|  3.1384e+00|  3.1384e+00|
|        2738|  1.6251e-01|   -6.862235|    0.699307|    0.013522|  3.4523e+00|  3.4523e+00|  3.4523e+00|
|        2739|  1.6249e-01|   -6.866676|    0.699307|    0.013522|  3.7975e+00|  3.7975e+00|  3.7975e+00|
|        2740|  1.6247e-01|   -6.870699|    0.699307|    0.013522|  4.1772e+00|  4.1772e+00|  4.1772e+00|
|        2741|  1.6245e-01|   -6.874157|    0.699306|    0.013522|  4.5950e+00|  4.5950e+00|  4.5950e+00|
|        2742|  1.6244e-01|   -6.876895|    0.699306|    0.013522|  5.0545e+00|  5.0545e+00|  5.0545e+00|
|        2743|  1.6242e-01|   -6.878775|    0.699306|    0.013522|  5.5599e+00|  5.5599e+00|  5.5599e+00|
|        2744|  1.6240e-01|   -6.879800|    0.699306|    0.013522|  6.1159e+00|  6.1159e+00|  6.1159e+00|
|        2745|  1.6239e-01|   -6.879928|    0.699306|    0.013522|  6.7275e+00|  6.7275e+00|  6.7275e+00|
|        2746|  1.6246e-01|   -6.879080|    0.699305|    0.013522|  7.4002e+00|  7.4002e+00|  7.4002e+00|
|        2747|  1.6249e-01|   -6.877220|    0.699305|    0.013522|  8.1403e+00|  8.1403e+00|  8.1403e+00|
|        2748|  1.6248e-01|   -6.874363|    0.699305|    0.013522|  8.9543e+00|  8.9543e+00|  8.9543e+00|
|        2749|  1.6246e-01|   -6.870585|    0.699305|    0.013522|  9.8497e+00|  9.8497e+00|  9.8497e+00|
|        2750|  1.6245e-01|   -6.865905|    0.699304|    0.013522|  1.0835e+01|  1.0835e+01|  1.0835e+01|
|        2751|  1.6244e-01|   -6.860297|    0.699304|    0.013522|  1.1918e+01|  1.1918e+01|  1.1918e+01|
|        2752|  1.6243e-01|   -6.853719|    0.699304|    0.013522|  1.3110e+01|  1.3110e+01|  1.3110e+01|
|        2753|  1.6242e-01|   -6.846119|    0.699303|    0.013522|  1.4421e+01|  1.4421e+01|  1.4421e+01|
|        2754|  1.6241e-01|   -6.837398|    0.699303|    0.013522|  1.5863e+01|  1.5863e+01|  1.5863e+01|
|        2755|  1.6240e-01|   -6.827494|    0.699302|    0.013522|  1.7449e+01|  1.7449e+01|  1.7449e+01|
|        2756|  1.6239e-01|   -6.816332|    0.699302|    0.013522|  1.9194e+01|  1.9194e+01|  1.9194e+01|
|        2757|  1.6241e-01|   -6.803860|    0.699301|    0.013522|  2.1114e+01|  2.1114e+01|  2.1114e+01|
|        2758|  1.6249e-01|   -6.790051|    0.699300|    0.013522|  2.3225e+01|  2.3225e+01|  2.3225e+01|
|        2759|  1.6248e-01|   -6.774848|    0.699300|    0.013521|  2.5548e+01|  2.5548e+01|  2.5548e+01|
|        2760|  1.6247e-01|   -6.758377|    0.699299|    0.013521|  2.8102e+01|  2.8102e+01|  2.8102e+01|
|        2761|  1.6246e-01|   -6.740996|    0.699298|    0.013521|  3.0913e+01|  3.0913e+01|  3.0913e+01|
|        2762|  1.6245e-01|   -6.721879|    0.699297|    0.013521|  3.4004e+01|  3.4004e+01|  3.4004e+01|
|        2763|  1.6244e-01|   -6.700954|    0.699296|    0.013521|  3.7404e+01|  3.7404e+01|  3.7404e+01|
|        2764|  1.6243e-01|   -6.679622|    0.699294|    0.013521|  4.1145e+01|  4.1145e+01|  4.1145e+01|
|        2765|  1.6242e-01|   -6.656434|    0.699293|    0.013521|  4.5259e+01|  4.5259e+01|  4.5259e+01|
|        2766|  1.6241e-01|   -6.629353|    0.699291|    0.013521|  4.5259e+01|  4.5259e+01|  4.5259e+01|
|        2767|  1.6242e-01|   -6.599855|    0.699290|    0.013521|  4.5259e+01|  4.5259e+01|  4.5259e+01|
|        2768|  1.6249e-01|   -6.583826|    0.699288|    0.013521|  4.5259e+01|  4.5259e+01|  4.5259e+01|
|        2769|  1.6248e-01|   -6.579588|    0.699287|    0.013521|  4.5259e+01|  4.5259e+01|  4.5259e+01|
|        2770|  1.6247e-01|   -6.574285|    0.699285|    0.013521|  4.9785e+01|  4.9785e+01|  4.9785e+01|
|        2771|  1.6246e-01|   -6.572281|    0.699283|    0.013521|  2.4893e+01|  2.4893e+01|  2.4893e+01|
|        2772|  1.6245e-01|   -6.557579|    0.699283|    0.013521|  2.7382e+01|  2.7382e+01|  2.7382e+01|
|        2773|  1.6244e-01|   -6.618753|    0.699282|    0.013521|  3.0120e+01|  3.0120e+01|  3.0120e+01|
|        2774|  1.6243e-01|   -6.657892|    0.699281|    0.013521|  3.3132e+01|  3.3132e+01|  3.3132e+01|
|        2775|  1.6242e-01|   -6.648491|    0.699280|    0.013521|  3.6445e+01|  3.6445e+01|  3.6445e+01|
|        2776|  1.6241e-01|   -6.636965|    0.699278|    0.013521|  4.0090e+01|  4.0090e+01|  4.0090e+01|
|        2777|  1.6240e-01|   -6.614801|    0.699277|    0.013521|  4.4099e+01|  4.4099e+01|  4.4099e+01|
|        2778|  1.6239e-01|   -6.575437|    0.699275|    0.013521|  4.8509e+01|  4.8509e+01|  4.8509e+01|
|        2779|  1.6244e-01|   -6.545537|    0.699274|    0.013521|  4.8509e+01|  4.8509e+01|  4.8509e+01|
|        2780|  1.6248e-01|   -6.513660|    0.699272|    0.013521|  4.8509e+01|  4.8509e+01|  4.8509e+01|
|        2781|  1.6247e-01|   -6.489594|    0.699270|    0.013521|  5.3359e+01|  5.3359e+01|  5.3359e+01|
|        2782|  1.6246e-01|   -6.479090|    0.699269|    0.013521|  2.6680e+01|  2.6680e+01|  2.6680e+01|
|        2783|  1.6245e-01|   -6.487710|    0.699268|    0.013521|  2.9348e+01|  2.9348e+01|  2.9348e+01|
|        2784|  1.6244e-01|   -6.568630|    0.699267|    0.013521|  3.2282e+01|  3.2282e+01|  3.2282e+01|
|        2785|  1.6243e-01|   -6.585821|    0.699266|    0.013521|  3.5511e+01|  3.5511e+01|  3.5511e+01|
|        2786|  1.6242e-01|   -6.569051|    0.699265|    0.013520|  3.9062e+01|  3.9062e+01|  3.9062e+01|
|        2787|  1.6241e-01|   -6.553574|    0.699263|    0.013520|  4.2968e+01|  4.2968e+01|  4.2968e+01|
|        2788|  1.6240e-01|   -6.561209|    0.699262|    0.013520|  4.7265e+01|  4.7265e+01|  4.7265e+01|
|        2789|  1.6239e-01|   -6.585818|    0.699260|    0.013520|  4.7265e+01|  4.7265e+01|  4.7265e+01|
|        2790|  1.6238e-01|   -6.564449|    0.699259|    0.013520|  4.7265e+01|  4.7265e+01|  4.7265e+01|
|        2791|  1.6237e-01|   -6.547111|    0.699258|    0.013520|  4.7265e+01|  4.7265e+01|  4.7265e+01|
|        2792|  1.6236e-01|   -6.529829|    0.699256|    0.013520|  5.1991e+01|  5.1991e+01|  5.1991e+01|
|        2793|  1.6235e-01|   -6.512242|    0.699255|    0.013520|  2.5996e+01|  2.5996e+01|  2.5996e+01|
|        2794|  1.6234e-01|   -6.494510|    0.699254|    0.013520|  2.8595e+01|  2.8595e+01|  2.8595e+01|
|        2795|  1.6243e-01|   -6.590084|    0.699253|    0.013520|  3.1455e+01|  3.1455e+01|  3.1455e+01|
|        2796|  1.6242e-01|   -6.613615|    0.699252|    0.013520|  3.4600e+01|  3.4600e+01|  3.4600e+01|
|        2797|  1.6241e-01|   -6.602801|    0.699251|    0.013520|  3.8060e+01|  3.8060e+01|  3.8060e+01|
|        2798|  1.6240e-01|   -6.589824|    0.699250|    0.013520|  4.1866e+01|  4.1866e+01|  4.1866e+01|
|        2799|  1.6239e-01|   -6.585095|    0.699249|    0.013520|  4.6053e+01|  4.6053e+01|  4.6053e+01|
|        2800|  1.6238e-01|   -6.591837|    0.699248|    0.013520|  5.0658e+01|  5.0658e+01|  5.0658e+01|
|        2801|  1.6237e-01|   -6.582718|    0.699246|    0.013520|  2.5329e+01|  2.5329e+01|  2.5329e+01|
|        2802|  1.6236e-01|   -6.572009|    0.699245|    0.013520|  2.7862e+01|  2.7862e+01|  2.7862e+01|
|        2803|  1.6235e-01|   -6.611085|    0.699245|    0.013520|  3.0648e+01|  3.0648e+01|  3.0648e+01|
|        2804|  1.6234e-01|   -6.613343|    0.699244|    0.013520|  3.3713e+01|  3.3713e+01|  3.3713e+01|
|        2805|  1.6233e-01|   -6.636259|    0.699243|    0.013520|  3.7084e+01|  3.7084e+01|  3.7084e+01|
|        2806|  1.6234e-01|   -6.640807|    0.699242|    0.013520|  4.0793e+01|  4.0793e+01|  4.0793e+01|
|        2807|  1.6240e-01|   -6.636748|    0.699241|    0.013520|  4.4872e+01|  4.4872e+01|  4.4872e+01|
|        2808|  1.6239e-01|   -6.610115|    0.699240|    0.013520|  4.9359e+01|  4.9359e+01|  4.9359e+01|
|        2809|  1.6238e-01|   -6.574997|    0.699239|    0.013520|  4.9359e+01|  4.9359e+01|  4.9359e+01|
|        2810|  1.6237e-01|   -6.544479|    0.699237|    0.013520|  5.4295e+01|  5.4295e+01|  5.4295e+01|
|        2811|  1.6236e-01|   -6.521849|    0.699236|    0.013520|  2.7148e+01|  2.7148e+01|  2.7148e+01|
|        2812|  1.6235e-01|   -6.517412|    0.699236|    0.013520|  2.9862e+01|  2.9862e+01|  2.9862e+01|
|        2813|  1.6234e-01|   -6.624410|    0.699235|    0.013520|  3.2849e+01|  3.2849e+01|  3.2849e+01|
|        2814|  1.6233e-01|   -6.633846|    0.699234|    0.013520|  3.6133e+01|  3.6133e+01|  3.6133e+01|
|        2815|  1.6232e-01|   -6.615585|    0.699233|    0.013520|  3.9747e+01|  3.9747e+01|  3.9747e+01|
|        2816|  1.6231e-01|   -6.590320|    0.699232|    0.013520|  4.3721e+01|  4.3721e+01|  4.3721e+01|
|        2817|  1.6230e-01|   -6.580298|    0.699231|    0.013520|  4.8094e+01|  4.8094e+01|  4.8094e+01|
|        2818|  1.6229e-01|   -6.595580|    0.699230|    0.013520|  5.2903e+01|  5.2903e+01|  5.2903e+01|
|        2819|  1.6234e-01|   -6.592549|    0.699229|    0.013520|  2.6451e+01|  2.6451e+01|  2.6451e+01|
|        2820|  1.6236e-01|   -6.561107|    0.699228|    0.013520|  2.9097e+01|  2.9097e+01|  2.9097e+01|
|        2821|  1.6235e-01|   -6.615974|    0.699228|    0.013520|  3.2006e+01|  3.2006e+01|  3.2006e+01|
|        2822|  1.6234e-01|   -6.615074|    0.699227|    0.013520|  3.5207e+01|  3.5207e+01|  3.5207e+01|
|        2823|  1.6233e-01|   -6.631804|    0.699226|    0.013520|  3.8728e+01|  3.8728e+01|  3.8728e+01|
|        2824|  1.6232e-01|   -6.645101|    0.699225|    0.013520|  4.2600e+01|  4.2600e+01|  4.2600e+01|
|        2825|  1.6231e-01|   -6.616736|    0.699225|    0.013520|  4.6860e+01|  4.6860e+01|  4.6860e+01|
|        2826|  1.6230e-01|   -6.609135|    0.699223|    0.013520|  5.1546e+01|  5.1546e+01|  5.1546e+01|
|        2827|  1.6229e-01|   -6.572029|    0.699222|    0.013520|  5.1546e+01|  5.1546e+01|  5.1546e+01|
|        2828|  1.6228e-01|   -6.540670|    0.699221|    0.013520|  5.1546e+01|  5.1546e+01|  5.1546e+01|
|        2829|  1.6227e-01|   -6.524747|    0.699220|    0.013520|  5.1546e+01|  5.1546e+01|  5.1546e+01|
|        2830|  1.6226e-01|   -6.518543|    0.699219|    0.013520|  5.1546e+01|  5.1546e+01|  5.1546e+01|
|        2831|  1.6225e-01|   -6.528170|    0.699218|    0.013520|  5.1546e+01|  5.1546e+01|  5.1546e+01|
|        2832|  1.6224e-01|   -6.524825|    0.699217|    0.013520|  5.1546e+01|  5.1546e+01|  5.1546e+01|
|        2833|  1.6223e-01|   -6.491559|    0.699216|    0.013520|  5.1546e+01|  5.1546e+01|  5.1546e+01|
|        2834|  1.6222e-01|   -6.467731|    0.699215|    0.013520|  5.6701e+01|  5.6701e+01|  5.6701e+01|
|        2835|  1.6228e-01|   -6.453163|    0.699213|    0.013520|  2.8351e+01|  2.8351e+01|  2.8351e+01|
|        2836|  1.6232e-01|   -6.419877|    0.699213|    0.013520|  1.0000e+00|  1.0000e+00|  1.0000e+00|
|        2837|  1.6229e-01|   -6.510318|    0.699213|    0.013520|  1.1000e+00|  1.1000e+00|  1.1000e+00|
|        2838|  1.6227e-01|   -6.599571|    0.699213|    0.013520|  1.2100e+00|  1.2100e+00|  1.2100e+00|
|        2839|  1.6224e-01|   -6.669786|    0.699213|    0.013520|  1.3310e+00|  1.3310e+00|  1.3310e+00|
|        2840|  1.6222e-01|   -6.721939|    0.699213|    0.013520|  1.4641e+00|  1.4641e+00|  1.4641e+00|
|        2841|  1.6220e-01|   -6.759436|    0.699213|    0.013520|  1.6105e+00|  1.6105e+00|  1.6105e+00|
|        2842|  1.6218e-01|   -6.781837|    0.699213|    0.013520|  1.7716e+00|  1.7716e+00|  1.7716e+00|
|        2843|  1.6215e-01|   -6.799779|    0.699213|    0.013520|  1.9487e+00|  1.9487e+00|  1.9487e+00|
|        2844|  1.6213e-01|   -6.822087|    0.699212|    0.013520|  2.1436e+00|  2.1436e+00|  2.1436e+00|
|        2845|  1.6211e-01|   -6.843256|    0.699212|    0.013520|  2.3579e+00|  2.3579e+00|  2.3579e+00|
|        2846|  1.6209e-01|   -6.861022|    0.699212|    0.013520|  2.5937e+00|  2.5937e+00|  2.5937e+00|
|        2847|  1.6207e-01|   -6.878088|    0.699212|    0.013520|  2.8531e+00|  2.8531e+00|  2.8531e+00|
|        2848|  1.6205e-01|   -6.891893|    0.699212|    0.013520|  3.1384e+00|  3.1384e+00|  3.1384e+00|
|        2849|  1.6203e-01|   -6.903482|    0.699212|    0.013520|  3.4523e+00|  3.4523e+00|  3.4523e+00|
|        2850|  1.6201e-01|   -6.915058|    0.699212|    0.013520|  3.7975e+00|  3.7975e+00|  3.7975e+00|
|        2851|  1.6206e-01|   -6.925762|    0.699212|    0.013520|  4.1772e+00|  4.1772e+00|  4.1772e+00|
|        2852|  1.6212e-01|   -6.934817|    0.699212|    0.013520|  4.5950e+00|  4.5950e+00|  4.5950e+00|
|        2853|  1.6210e-01|   -6.942029|    0.699212|    0.013520|  5.0545e+00|  5.0545e+00|  5.0545e+00|
|        2854|  1.6208e-01|   -6.947301|    0.699212|    0.013520|  5.5599e+00|  5.5599e+00|  5.5599e+00|
|        2855|  1.6207e-01|   -6.952267|    0.699211|    0.013520|  6.1159e+00|  6.1159e+00|  6.1159e+00|
|        2856|  1.6205e-01|   -6.956256|    0.699211|    0.013520|  6.7275e+00|  6.7275e+00|  6.7275e+00|
|        2857|  1.6204e-01|   -6.958710|    0.699211|    0.013520|  7.4002e+00|  7.4002e+00|  7.4002e+00|
|        2858|  1.6202e-01|   -6.959493|    0.699211|    0.013520|  8.1403e+00|  8.1403e+00|  8.1403e+00|
|        2859|  1.6201e-01|   -6.959655|    0.699211|    0.013520|  8.9543e+00|  8.9543e+00|  8.9543e+00|
|        2860|  1.6200e-01|   -6.958610|    0.699211|    0.013520|  9.8497e+00|  9.8497e+00|  9.8497e+00|
|        2861|  1.6199e-01|   -6.956118|    0.699211|    0.013520|  1.0835e+01|  1.0835e+01|  1.0835e+01|
|        2862|  1.6198e-01|   -6.952307|    0.699210|    0.013520|  1.1918e+01|  1.1918e+01|  1.1918e+01|
|        2863|  1.6197e-01|   -6.947156|    0.699210|    0.013520|  1.3110e+01|  1.3110e+01|  1.3110e+01|
|        2864|  1.6202e-01|   -6.940516|    0.699210|    0.013520|  1.4421e+01|  1.4421e+01|  1.4421e+01|
|        2865|  1.6208e-01|   -6.932328|    0.699210|    0.013520|  1.5863e+01|  1.5863e+01|  1.5863e+01|
|        2866|  1.6206e-01|   -6.922554|    0.699209|    0.013520|  1.7449e+01|  1.7449e+01|  1.7449e+01|
|        2867|  1.6205e-01|   -6.911063|    0.699209|    0.013520|  1.9194e+01|  1.9194e+01|  1.9194e+01|
|        2868|  1.6204e-01|   -6.897858|    0.699208|    0.013520|  2.1114e+01|  2.1114e+01|  2.1114e+01|
|        2869|  1.6203e-01|   -6.882950|    0.699208|    0.013520|  2.3225e+01|  2.3225e+01|  2.3225e+01|
|        2870|  1.6202e-01|   -6.866415|    0.699207|    0.013520|  2.5548e+01|  2.5548e+01|  2.5548e+01|
|        2871|  1.6201e-01|   -6.848376|    0.699207|    0.013520|  2.8102e+01|  2.8102e+01|  2.8102e+01|
|        2872|  1.6200e-01|   -6.828922|    0.699206|    0.013520|  3.0913e+01|  3.0913e+01|  3.0913e+01|
|        2873|  1.6199e-01|   -6.808053|    0.699205|    0.013520|  3.4004e+01|  3.4004e+01|  3.4004e+01|
|        2874|  1.6198e-01|   -6.785849|    0.699205|    0.013520|  3.7404e+01|  3.7404e+01|  3.7404e+01|
|        2875|  1.6197e-01|   -6.762107|    0.699204|    0.013520|  4.1145e+01|  4.1145e+01|  4.1145e+01|
|        2876|  1.6200e-01|   -6.732055|    0.699203|    0.013520|  4.5259e+01|  4.5259e+01|  4.5259e+01|
|        2877|  1.6208e-01|   -6.703056|    0.699202|    0.013520|  4.9785e+01|  4.9785e+01|  4.9785e+01|
|        2878|  1.6209e-01|   -6.673418|    0.699201|    0.013520|  2.4893e+01|  2.4893e+01|  2.4893e+01|
|        2879|  1.6208e-01|   -6.637027|    0.699200|    0.013520|  2.7382e+01|  2.7382e+01|  2.7382e+01|
|        2880|  1.6207e-01|   -6.687269|    0.699200|    0.013520|  3.0120e+01|  3.0120e+01|  3.0120e+01|
|        2881|  1.6206e-01|   -6.708414|    0.699199|    0.013520|  3.3132e+01|  3.3132e+01|  3.3132e+01|
|        2882|  1.6205e-01|   -6.691884|    0.699198|    0.013520|  3.6445e+01|  3.6445e+01|  3.6445e+01|
|        2883|  1.6204e-01|   -6.674581|    0.699197|    0.013520|  4.0090e+01|  4.0090e+01|  4.0090e+01|
|        2884|  1.6203e-01|   -6.643935|    0.699196|    0.013520|  4.4099e+01|  4.4099e+01|  4.4099e+01|
|        2885|  1.6202e-01|   -6.629283|    0.699195|    0.013520|  4.8509e+01|  4.8509e+01|  4.8509e+01|
|        2886|  1.6201e-01|   -6.612426|    0.699194|    0.013520|  5.3359e+01|  5.3359e+01|  5.3359e+01|
|        2887|  1.6200e-01|   -6.595894|    0.699193|    0.013520|  2.6680e+01|  2.6680e+01|  2.6680e+01|
|        2888|  1.6203e-01|   -6.580823|    0.699193|    0.013520|  2.9348e+01|  2.9348e+01|  2.9348e+01|

----------------------------- Solver Exit -------------------------------
All convergence criteria satisfied.
+-----------------------------------------------------------------------+
|      Convergence Field     |     Value    |   Criterion  |  Converged |
+-----------------------------------------------------------------------+
|                  Cauchy[CL]|   9.92629e-07|       < 1e-06|         Yes|
+-----------------------------------------------------------------------+
-------------------------------------------------------------------------
+-----------------------------------------------------------------------+
|        File Writing Summary       |              Filename             |
+-----------------------------------------------------------------------+
|SU2 binary restart                 |restart_flow.dat                   |

Writing the forces breakdown file (forces_breakdown.dat).
|Paraview                           |flow.vtu                           |

Writing the forces breakdown file (forces_breakdown.dat).
|Paraview surface                   |surface_flow.vtu                   |

Writing the forces breakdown file (forces_breakdown.dat).
+-----------------------------------------------------------------------+

--------------------------- Finalizing Solver ---------------------------
Deleted CNumerics container.
Deleted CIntegration container.
Deleted CSolver container.
Deleted CIteration container.
Deleted CInterface container.
Deleted CGeometry container.
Deleted CFreeFormDefBox class.
Deleted CSurfaceMovement class.
Deleted CVolumetricMovement class.
Deleted CConfig container.
Deleted nInst container.
Deleted COutput class.
-------------------------------------------------------------------------

------------------------- Exit Success (SU2_CFD) ------------------------

