
-------------------------------------------------------------------------
|    ___ _   _ ___                                                      |
|   / __| | | |_  )   Release 8.0.0 "Harrier"                           |
|   \__ \ |_| |/ /                                                      |
|   |___/\___//___|   Suite (Computational Fluid Dynamics Code)         |
|                                                                       |
-------------------------------------------------------------------------
| SU2 Project Website: https://su2code.github.io                        |
|                                                                       |
| The SU2 Project is maintained by the SU2 Foundation                   |
| (http://su2foundation.org)                                            |
-------------------------------------------------------------------------
| Copyright 2012-2023, SU2 Contributors                                 |
|                                                                       |
| SU2 is free software; you can redistribute it and/or                  |
| modify it under the terms of the GNU Lesser General Public            |
| License as published by the Free Software Foundation; either          |
| version 2.1 of the License, or (at your option) any later version.    |
|                                                                       |
| SU2 is distributed in the hope that it will be useful,                |
| but WITHOUT ANY WARRANTY; without even the implied warranty of        |
| MERCHANTABILITY or FITNESS FOR A PARTICULAR PURPOSE. See the GNU      |
| Lesser General Public License for more details.                       |
|                                                                       |
| You should have received a copy of the GNU Lesser General Public      |
| License along with SU2. If not, see <http://www.gnu.org/licenses/>.   |
-------------------------------------------------------------------------

Parsing config file for zone 0

----------------- Physical Case Definition ( Zone 0 ) -------------------
Compressible RANS equations.
Turbulence model: Spalart-Allmaras-noft2
Hybrid RANS/LES: No Hybrid RANS/LES
Mach number: 0.734.
Angle of attack (AoA): 2.31 deg, and angle of sideslip (AoS): 0 deg.
Reynolds number: 6.5e+06. Reference length 1.
No restart solution, use the values at infinity (freestream).
Dimensional simulation.
The reference area is 1 m^2.
The semi-span will be computed using the max y(3D) value.
The reference length is 1 m.
Reference origin for moment evaluation is (0.25, 0, 0).
Surface(s) where the force coefficients are evaluated: AIRFOIL.

Surface(s) plotted in the output file: AIRFOIL.
Input mesh file name: Mesh.su2

--------------- Space Numerical Integration ( Zone 0 ) ------------------
Roe (with entropy fix = 0.001) solver for the flow inviscid terms.
Standard Roe without low-dissipation function.
Second order integration in space, with slope limiter.
Venkatakrishnan slope-limiting method, with constant: 0.03.
The reference element size is: 1. 
Scalar upwind solver for the turbulence model.
First order integration in space.
Average of gradients with correction (viscous flow terms).
Average of gradients with correction (viscous turbulence terms).
Gradient for upwind reconstruction: inverse-distance weighted Least-Squares.
Gradient for viscous and source terms: inverse-distance weighted Least-Squares.

--------------- Time Numerical Integration  ( Zone 0 ) ------------------
Local time stepping (steady state simulation).
Euler implicit method for the flow equations.
FGMRES is used for solving the linear system.
Using a ILU(0) preconditioning.
Convergence criteria of the linear solver: 0.01.
Max number of linear iterations: 5.
CFL adaptation. Factor down: 0.5, factor up: 1.1,
                lower limit: 50, upper limit: 10000,
                acceptable linear residual: 0.01.
Courant-Friedrichs-Lewy number:       20
Euler implicit time integration for the turbulence model.

------------------ Convergence Criteria  ( Zone 0 ) ---------------------
Maximum number of solver subiterations: 5000.
Begin convergence monitoring at iteration 10.
Residual minimum value: 1e-14.
Cauchy series min. value: 1e-06.
Number of Cauchy elements: 100.
Begin windowed time average at iteration 0.

-------------------- Output Information ( Zone 0 ) ----------------------
File writing frequency: 
+------------------------------------+
|                     File| Frequency|
+------------------------------------+
|                  RESTART|      1000|
|                 PARAVIEW|      1000|
|         SURFACE_PARAVIEW|      1000|
+------------------------------------+
Writing the convergence history file every 1 inner iterations.
Writing the screen convergence history every 1 inner iterations.
The tabular file format is CSV (.csv).
Convergence history file name: historyThird.
Forces breakdown file name: forces_breakdown.dat.
Surface file name: surface_flow.
Volume file name: flow.
Restart file name: restart_flow.dat.

------------- Config File Boundary Information ( Zone 0 ) ---------------
+-----------------------------------------------------------------------+
|                        Marker Type|                        Marker Name|
+-----------------------------------------------------------------------+
|                          Far-field|                           FARFIELD|
+-----------------------------------------------------------------------+
|                     Heat flux wall|                            AIRFOIL|
+-----------------------------------------------------------------------+

-------------------- Output Preprocessing ( Zone 0 ) --------------------

WARNING: SURFACE_PRESSURE_DROP can only be computed for at least 2 surfaces (outlet, inlet, ...)

Screen output fields: INNER_ITER, WALL_TIME, RMS_DENSITY, LIFT, DRAG, LINSOL_ITER, LINSOL_RESIDUAL, MIN_CFL, MAX_CFL, AVG_CFL
  Info: Ignoring the following history output groups:
  RESIDUALS, CFL
History output group(s): INNER_ITER, LIFT, DRAG
Convergence field(s): LIFT
Warning: No (valid) fields chosen for time convergence monitoring. Time convergence monitoring inactive.
  Info: Ignoring the following volume output fields/groups:
  RESIDUALS
Volume output fields: SOLUTION, PRIMITIVE, GRADIENTS, HESSIANS, EIGENVALUES, WALL_DISTANCE, COORDINATES

------------------- Geometry Preprocessing ( Zone 0 ) -------------------
Two dimensional problem.
53745 grid points before partitioning.
86572 volume elements before partitioning.
2 surface markers.
503 boundary elements in index 0 (Marker = AIRFOIL).
40 boundary elements in index 1 (Marker = FARFIELD).
Executing the partitioning functions.
Building the graph adjacency structure.
Calling ParMETIS... graph partitioning complete (1354 edge cuts).
Distributing ParMETIS coloring.
Rebalancing vertices.
Rebalancing volume element connectivity.
Rebalancing markers and surface elements.
55360 vertices including ghost points. 
87926 interior elements including halo cells. 
67298 triangles.
20628 quadrilaterals.
Establishing MPI communication patterns.
Setting point connectivity.
Renumbering points (Reverse Cuthill McKee Ordering).
Recomputing point connectivity.
Setting element connectivity.
Checking the numerical grid orientation.
All volume elements are correctly orientend.
All surface elements are correctly orientend.
Identifying edges and vertices.
Setting the control volume structure.
Area of the computational grid: 31300.7.
Searching for the closest normal neighbors to the surfaces.
Storing a mapping from global to local point index.
Compute the surface curvature.
Max K: 13805.5. Mean K: 58.7759. Standard deviation K: 806.003.
Checking for periodicity.
Computing mesh quality statistics for the dual control volumes.
+--------------------------------------------------------------+
|           Mesh Quality Metric|        Minimum|        Maximum|
+--------------------------------------------------------------+
|    Orthogonality Angle (deg.)|        54.7808|             90|
|     CV Face Area Aspect Ratio|        1.00245|        7393.81|
|           CV Sub-Volume Ratio|              1|        11.4204|
+--------------------------------------------------------------+
Finding max control volume width.
Communicating number of neighbors.
Wetted area = 2.0206 m.
Area projection in the x-plane = 0.123264 m, y-plane = 0.993653 m.
Max. coordinate in the x-direction = 0.993668 m, y-direction = 0.0643462 m.
Min. coordinate in the x-direction = 0 m, y-direction = -0.0577863 m.
Computing wall distances.

-------------------- Solver Preprocessing ( Zone 0 ) --------------------
Viscous flow: Computing pressure using the ideal gas law
based on the free-stream temperature and a density computed
from the Reynolds number.
Force coefficients computed using free-stream values.

-- Models:
+------------------------------------------------------------------------------+
|          Viscosity Model|        Conductivity Model|              Fluid Model|
+------------------------------------------------------------------------------+
|               SUTHERLAND|          CONSTANT_PRANDTL|             STANDARD_AIR|
+------------------------------------------------------------------------------+
-- Fluid properties:
+------------------------------------------------------------------------------+
|                  Name|    Dim. value|    Ref. value|      Unit|Non-dim. value|
+------------------------------------------------------------------------------+
|        Ref. Viscosity|     1.716e-05|             1|   N.s/m^2|     1.716e-05|
|      Sutherland Temp.|        273.15|             1|         K|        273.15|
|     Sutherland Const.|         110.4|             1|         K|         110.4|
+------------------------------------------------------------------------------+
|        Prandtl (Lam.)|             -|             -|         -|          0.71|
|       Prandtl (Turb.)|             -|             -|         -|           0.9|
+------------------------------------------------------------------------------+
|          Gas Constant|       287.058|             1|  N.m/kg.K|       287.058|
|      Spec. Heat Ratio|             -|             -|         -|           1.4|
+------------------------------------------------------------------------------+
-- Initial and free-stream conditions:
+------------------------------------------------------------------------------+
|                  Name|    Dim. value|    Ref. value|      Unit|Non-dim. value|
+------------------------------------------------------------------------------+
|       Static Pressure|         38515|             1|        Pa|         38515|
|               Density|      0.465631|             1|    kg/m^3|      0.465631|
|           Temperature|        288.15|             1|         K|        288.15|
|          Total Energy|        237984|             1|   m^2/s^2|        237984|
|            Velocity-X|       249.575|             1|       m/s|       249.575|
|            Velocity-Y|       10.0676|             1|       m/s|       10.0676|
|    Velocity Magnitude|       249.778|             1|       m/s|       249.778|
+------------------------------------------------------------------------------+
|             Viscosity|    1.7893e-05|             1|   N.s/m^2|    1.7893e-05|
|          Conductivity|             -|             1|   W/m^2.K|             -|
|     Turb. Kin. Energy|       233.959|             1|   m^2/s^2|       233.959|
|     Spec. Dissipation|        608834|             1|       1/s|        608834|
+------------------------------------------------------------------------------+
|           Mach Number|             -|             -|         -|         0.734|
|       Reynolds Number|             -|             -|         -|       6.5e+06|
+------------------------------------------------------------------------------+
Initialize Jacobian structure (Navier-Stokes). MG level: 0.
Initialize Jacobian structure (SA model).

------------------- Numerics Preprocessing ( Zone 0 ) -------------------

----------------- Integration Preprocessing ( Zone 0 ) ------------------

------------------- Iteration Preprocessing ( Zone 0 ) ------------------
Euler/Navier-Stokes/RANS fluid iteration.

------------------------------ Begin Solver -----------------------------

Simulation Run using the Single-zone Driver
WARNING: SU2 was not compiled for an AVX-capable architecture. Performance could be better,
         see https://su2code.github.io/docs_v7/Build-SU2-Linux-MacOS/#compiler-optimizations
+---------------------------------------------------------------------------------------------------------------------------------+
|  Inner_Iter|   Time(sec)|    rms[Rho]|          CL|          CD|Linear_Solve|   LinSolRes|     Min CFL|     Max CFL|     Avg CFL|
+---------------------------------------------------------------------------------------------------------------------------------+
|           0|  8.0968e-02|   -2.158553|    0.210008|    0.480931|           3|   -2.265629|  5.0000e+01|  5.0000e+01|  5.0000e+01|
|           1|  8.9103e-02|   -2.259010|    0.223508|    0.333313|           5|   -1.715591|  5.0000e+01|  5.0000e+01|  5.0000e+01|
|           2|  9.4435e-02|   -2.702120|    0.198509|    0.290374|           5|   -1.130372|  5.0000e+01|  5.0000e+01|  5.0000e+01|
|           3|  9.5382e-02|   -2.932786|    0.192871|    0.270722|           5|   -0.875411|  5.0000e+01|  5.0000e+01|  5.0000e+01|
|           4|  9.5676e-02|   -2.974441|    0.187877|    0.251032|           5|   -0.863448|  5.0000e+01|  5.0000e+01|  5.0000e+01|
|           5|  9.5886e-02|   -2.964379|    0.184189|    0.233845|           5|   -0.835288|  5.0000e+01|  5.0000e+01|  5.0000e+01|
|           6|  9.6041e-02|   -2.941652|    0.181212|    0.217334|           5|   -0.800658|  5.0000e+01|  5.0000e+01|  5.0000e+01|
|           7|  9.6447e-02|   -2.919604|    0.177548|    0.201320|           5|   -0.795335|  5.0000e+01|  5.0000e+01|  5.0000e+01|
|           8|  9.6703e-02|   -2.895711|    0.172495|    0.186088|           5|   -0.810567|  5.0000e+01|  5.0000e+01|  5.0000e+01|
|           9|  9.6725e-02|   -2.870622|    0.166775|    0.172077|           5|   -0.825143|  5.0000e+01|  5.0000e+01|  5.0000e+01|
|          10|  1.1743e-01|   -2.848628|    0.161902|    0.159695|           5|   -2.061398|  5.0000e+01|  5.0000e+01|  5.0000e+01|
|          11|  1.3464e-01|   -2.839341|    0.159878|    0.148613|           5|   -1.551140|  5.0000e+01|  5.0000e+01|  5.0000e+01|
|          12|  1.4915e-01|   -2.828281|    0.162336|    0.138496|           5|   -1.586956|  5.0000e+01|  5.0000e+01|  5.0000e+01|
|          13|  1.6160e-01|   -2.813550|    0.169865|    0.129059|           5|   -1.651881|  5.0000e+01|  5.0000e+01|  5.0000e+01|
|          14|  1.7243e-01|   -2.798359|    0.182457|    0.120081|           5|   -1.597573|  5.0000e+01|  5.0000e+01|  5.0000e+01|
|          15|  2.0309e-01|   -2.780321|    0.199250|    0.111494|           5|   -1.665004|  5.0000e+01|  5.0000e+01|  5.0000e+01|
|          16|  2.0961e-01|   -2.759086|    0.218857|    0.103384|           5|   -1.774976|  5.0000e+01|  5.0000e+01|  5.0000e+01|
|          17|  2.1600e-01|   -2.736405|    0.239845|    0.095877|           5|   -1.764428|  5.0000e+01|  5.0000e+01|  5.0000e+01|
|          18|  2.2177e-01|   -2.714362|    0.261177|    0.089123|           5|   -1.642900|  5.0000e+01|  5.0000e+01|  5.0000e+01|
|          19|  2.4137e-01|   -2.692855|    0.282171|    0.083194|           5|   -2.083512|  5.0000e+01|  5.0000e+01|  5.0000e+01|
|          20|  2.4527e-01|   -2.672259|    0.302635|    0.078105|           5|   -2.267525|  5.0000e+01|  5.0000e+01|  5.0000e+01|
|          21|  2.4893e-01|   -2.652516|    0.322619|    0.073794|           5|   -2.216076|  5.0000e+01|  5.0000e+01|  5.0000e+01|
|          22|  2.5224e-01|   -2.633586|    0.342377|    0.070137|           5|   -2.274566|  5.0000e+01|  5.0000e+01|  5.0000e+01|
|          23|  2.6868e-01|   -2.614658|    0.361995|    0.066949|           5|   -2.159510|  5.0000e+01|  5.0000e+01|  5.0000e+01|
|          24|  2.7089e-01|   -2.596923|    0.381454|    0.064053|           5|   -2.219544|  5.0000e+01|  5.0000e+01|  5.0000e+01|
|          25|  2.7299e-01|   -2.580610|    0.400639|    0.061296|           5|   -2.128066|  5.0000e+01|  5.0000e+01|  5.0000e+01|
|          26|  2.7490e-01|   -2.566202|    0.419335|    0.058570|           5|   -2.066093|  5.0000e+01|  5.0000e+01|  5.0000e+01|
|          27|  2.8922e-01|   -2.552992|    0.437272|    0.055805|           5|   -2.082551|  5.0000e+01|  5.0000e+01|  5.0000e+01|
|          28|  2.9085e-01|   -2.543613|    0.454196|    0.053006|           5|   -1.928996|  5.0000e+01|  5.0000e+01|  5.0000e+01|
|          29|  2.9188e-01|   -2.534685|    0.469932|    0.050183|           5|   -1.477674|  5.0000e+01|  5.0000e+01|  5.0000e+01|
|          30|  2.9754e-01|   -2.525506|    0.484572|    0.047412|           5|   -1.821029|  5.0000e+01|  5.0000e+01|  5.0000e+01|
|          31|  3.0387e-01|   -2.517041|    0.498337|    0.044723|           5|   -1.767851|  5.0000e+01|  5.0000e+01|  5.0000e+01|
|          32|  3.0413e-01|   -2.511567|    0.511325|    0.042204|           5|   -1.983221|  5.0000e+01|  5.0000e+01|  5.0000e+01|
|          33|  3.0457e-01|   -2.504421|    0.523762|    0.039920|           5|   -1.883138|  5.0000e+01|  5.0000e+01|  5.0000e+01|
|          34|  3.0504e-01|   -2.496591|    0.536367|    0.037860|           5|   -1.930162|  5.0000e+01|  5.0000e+01|  5.0000e+01|
|          35|  3.0837e-01|   -2.488488|    0.548935|    0.036063|           5|   -2.055971|  5.0000e+01|  5.0000e+01|  5.0000e+01|
|          36|  3.1447e-01|   -2.480518|    0.561751|    0.034498|           5|   -1.983210|  5.0000e+01|  5.0000e+01|  5.0000e+01|
|          37|  3.1489e-01|   -2.472497|    0.575028|    0.033143|           5|   -2.059513|  5.0000e+01|  5.0000e+01|  5.0000e+01|
|          38|  3.1468e-01|   -2.464867|    0.588121|    0.032001|           5|   -1.917600|  5.0000e+01|  5.0000e+01|  5.0000e+01|
|          39|  3.1491e-01|   -2.456373|    0.601475|    0.031008|           5|   -2.035571|  5.0000e+01|  5.0000e+01|  5.0000e+01|
|          40|  3.2247e-01|   -2.448822|    0.614620|    0.030143|           5|   -1.967816|  5.0000e+01|  5.0000e+01|  5.0000e+01|
|          41|  3.2232e-01|   -2.440135|    0.627916|    0.029412|           5|   -1.847493|  5.0000e+01|  5.0000e+01|  5.0000e+01|
|          42|  3.2226e-01|   -2.431981|    0.640305|    0.028790|           5|   -1.957961|  5.0000e+01|  5.0000e+01|  5.0000e+01|
|          43|  3.2220e-01|   -2.424527|    0.652992|    0.028345|           5|   -1.374374|  5.0000e+01|  5.0000e+01|  5.0000e+01|
|          44|  3.2759e-01|   -2.411992|    0.665073|    0.028003|           5|   -1.886916|  5.0000e+01|  5.0000e+01|  5.0000e+01|
|          45|  3.2738e-01|   -2.422821|    0.677215|    0.027952|           5|   -1.859627|  5.0000e+01|  5.0000e+01|  5.0000e+01|
|          46|  3.2720e-01|   -2.422535|    0.688614|    0.028059|           5|   -1.806220|  5.0000e+01|  5.0000e+01|  5.0000e+01|
|          47|  3.2715e-01|   -2.430525|    0.699491|    0.028328|           5|   -1.979143|  5.0000e+01|  5.0000e+01|  5.0000e+01|
|          48|  3.3331e-01|   -2.444541|    0.709101|    0.028703|           5|   -1.690154|  5.0000e+01|  5.0000e+01|  5.0000e+01|
|          49|  3.3304e-01|   -2.461037|    0.716906|    0.029001|           5|   -1.493528|  5.0000e+01|  5.0000e+01|  5.0000e+01|
|          50|  3.3277e-01|   -2.480495|    0.724669|    0.029504|           5|   -1.665564|  5.0000e+01|  5.0000e+01|  5.0000e+01|
|          51|  3.3257e-01|   -2.503872|    0.731048|    0.029989|           5|   -1.739044|  5.0000e+01|  5.0000e+01|  5.0000e+01|
|          52|  3.3444e-01|   -2.531155|    0.736103|    0.030430|           5|   -1.658556|  5.0000e+01|  5.0000e+01|  5.0000e+01|
|          53|  3.3837e-01|   -2.552721|    0.740398|    0.030904|           5|   -1.645760|  5.0000e+01|  5.0000e+01|  5.0000e+01|
|          54|  3.3793e-01|   -2.566880|    0.743457|    0.031247|           5|   -1.349766|  5.0000e+01|  5.0000e+01|  5.0000e+01|
|          55|  3.3766e-01|   -2.589060|    0.746255|    0.031674|           5|   -1.731366|  5.0000e+01|  5.0000e+01|  5.0000e+01|
|          56|  3.4287e-01|   -2.594134|    0.747850|    0.031960|           5|   -1.573873|  5.0000e+01|  5.0000e+01|  5.0000e+01|
|          57|  3.4241e-01|   -2.597608|    0.749445|    0.032323|           5|   -1.212348|  5.0000e+01|  5.0000e+01|  5.0000e+01|
|          58|  3.4199e-01|   -2.585183|    0.749793|    0.032535|           5|   -1.900709|  5.0000e+01|  5.0000e+01|  5.0000e+01|
|          59|  3.4151e-01|   -2.601317|    0.749831|    0.032714|           5|   -1.818629|  5.0000e+01|  5.0000e+01|  5.0000e+01|
|          60|  3.4124e-01|   -2.587814|    0.749134|    0.032783|           5|   -1.946300|  5.0000e+01|  5.0000e+01|  5.0000e+01|
|          61|  3.4331e-01|   -2.588833|    0.747732|    0.032728|           5|   -1.683992|  5.0000e+01|  5.0000e+01|  5.0000e+01|
|          62|  3.4568e-01|   -2.605161|    0.747027|    0.032739|           5|   -1.875610|  5.0000e+01|  5.0000e+01|  5.0000e+01|
|          63|  3.4538e-01|   -2.612635|    0.745136|    0.032531|           5|   -1.641265|  5.0000e+01|  5.0000e+01|  5.0000e+01|
|          64|  3.4505e-01|   -2.627655|    0.742865|    0.032210|           5|   -1.742609|  5.0000e+01|  5.0000e+01|  5.0000e+01|
|          65|  3.4466e-01|   -2.646319|    0.739135|    0.031596|           5|   -0.704609|  5.0000e+01|  5.0000e+01|  5.0000e+01|
|          66|  3.4437e-01|   -2.617822|    0.735601|    0.030943|           5|   -1.647579|  5.0000e+01|  5.0000e+01|  5.0000e+01|
|          67|  3.4408e-01|   -2.666214|    0.731565|    0.030144|           5|   -2.042504|  5.0000e+01|  5.0000e+01|  5.0000e+01|
|          68|  3.4815e-01|   -2.722868|    0.727947|    0.029349|           5|   -1.839741|  5.0000e+01|  5.0000e+01|  5.0000e+01|
|          69|  3.4776e-01|   -2.768011|    0.723314|    0.028356|           5|   -1.817441|  5.0000e+01|  5.0000e+01|  5.0000e+01|
|          70|  3.4744e-01|   -2.812177|    0.719811|    0.027466|           5|   -1.930785|  5.0000e+01|  5.0000e+01|  5.0000e+01|
|          71|  3.4713e-01|   -2.854171|    0.716660|    0.026600|           5|   -1.824075|  5.0000e+01|  5.0000e+01|  5.0000e+01|
|          72|  3.4891e-01|   -2.883312|    0.713194|    0.025654|           5|   -1.648485|  5.0000e+01|  5.0000e+01|  5.0000e+01|
|          73|  3.4966e-01|   -2.925949|    0.710757|    0.024818|           5|   -1.708406|  5.0000e+01|  5.0000e+01|  5.0000e+01|
|          74|  3.4924e-01|   -2.957552|    0.708536|    0.024000|           5|   -1.622096|  5.0000e+01|  5.0000e+01|  5.0000e+01|
|          75|  3.4891e-01|   -2.980438|    0.706881|    0.023249|           5|   -1.413156|  5.0000e+01|  5.0000e+01|  5.0000e+01|
|          76|  3.4846e-01|   -2.866879|    0.705566|    0.022573|           5|   -1.760149|  5.0000e+01|  5.0000e+01|  5.0000e+01|
|          77|  3.5195e-01|   -2.965416|    0.705315|    0.022032|           5|   -1.307329|  5.0000e+01|  5.0000e+01|  5.0000e+01|
|          78|  3.5141e-01|   -2.918993|    0.705403|    0.021550|           5|   -1.483256|  5.0000e+01|  5.0000e+01|  5.0000e+01|
|          79|  3.5101e-01|   -2.980646|    0.706226|    0.021216|           5|   -1.282374|  5.0000e+01|  5.0000e+01|  5.0000e+01|
|          80|  3.5069e-01|   -2.977721|    0.707571|    0.020992|           5|   -1.247778|  5.0000e+01|  5.0000e+01|  5.0000e+01|
|          81|  3.5022e-01|   -2.965813|    0.709083|    0.020858|           5|   -1.501440|  5.0000e+01|  5.0000e+01|  5.0000e+01|
|          82|  3.4996e-01|   -2.996592|    0.710976|    0.020826|           5|   -1.056611|  5.0000e+01|  5.0000e+01|  5.0000e+01|
|          83|  3.5244e-01|   -2.889416|    0.712986|    0.020878|           5|   -1.564520|  5.0000e+01|  5.0000e+01|  5.0000e+01|
|          84|  3.5199e-01|   -2.954888|    0.715388|    0.021040|           5|   -1.368292|  5.0000e+01|  5.0000e+01|  5.0000e+01|
|          85|  3.5170e-01|   -2.940572|    0.717975|    0.021290|           5|   -0.991361|  5.0000e+01|  5.0000e+01|  5.0000e+01|
|          86|  3.5142e-01|   -3.013692|    0.720597|    0.021603|           5|   -0.984848|  5.0000e+01|  5.0000e+01|  5.0000e+01|
|          87|  3.5120e-01|   -2.990193|    0.723804|    0.022021|           5|   -1.169128|  5.0000e+01|  5.0000e+01|  5.0000e+01|
|          88|  3.5085e-01|   -2.958296|    0.727147|    0.022486|           5|   -1.095731|  5.0000e+01|  5.0000e+01|  5.0000e+01|
|          89|  3.5297e-01|   -2.977913|    0.730618|    0.022992|           5|   -1.475914|  5.0000e+01|  5.0000e+01|  5.0000e+01|
|          90|  3.5266e-01|   -3.002059|    0.734237|    0.023511|           5|   -1.156794|  5.0000e+01|  5.0000e+01|  5.0000e+01|
|          91|  3.5219e-01|   -3.053299|    0.738100|    0.024046|           5|   -1.406822|  5.0000e+01|  5.0000e+01|  5.0000e+01|
|          92|  3.5192e-01|   -3.035099|    0.742009|    0.024549|           5|   -1.460597|  5.0000e+01|  5.0000e+01|  5.0000e+01|
|          93|  3.5158e-01|   -3.079729|    0.745974|    0.025023|           5|   -1.441992|  5.0000e+01|  5.0000e+01|  5.0000e+01|
|          94|  3.5126e-01|   -3.104960|    0.750026|    0.025435|           5|   -1.239805|  5.0000e+01|  5.0000e+01|  5.0000e+01|
|          95|  3.5364e-01|   -3.148415|    0.753937|    0.025768|           5|   -1.366395|  5.0000e+01|  5.0000e+01|  5.0000e+01|
|          96|  3.5332e-01|   -3.150140|    0.757648|    0.026007|           5|   -0.983249|  5.0000e+01|  5.0000e+01|  5.0000e+01|
|          97|  3.5299e-01|   -3.198651|    0.761506|    0.026167|           5|   -1.288071|  5.0000e+01|  5.0000e+01|  5.0000e+01|
|          98|  3.5261e-01|   -3.090946|    0.765289|    0.026223|           5|   -1.764229|  5.0000e+01|  5.0000e+01|  5.0000e+01|
|          99|  3.5235e-01|   -3.228379|    0.768938|    0.026174|           5|   -1.150730|  5.0000e+01|  5.0000e+01|  5.0000e+01|
|         100|  3.5209e-01|   -3.210837|    0.772518|    0.026017|           5|   -1.448889|  5.0000e+01|  5.0000e+01|  5.0000e+01|
|         101|  3.5464e-01|   -3.299877|    0.776013|    0.025766|           5|   -1.027393|  5.0000e+01|  5.0000e+01|  5.0000e+01|
|         102|  3.5423e-01|   -3.328006|    0.779400|    0.025418|           5|   -1.306030|  5.0000e+01|  5.0000e+01|  5.0000e+01|
|         103|  3.5398e-01|   -3.351300|    0.782600|    0.024982|           5|   -1.505244|  5.0000e+01|  5.0000e+01|  5.0000e+01|
|         104|  3.5372e-01|   -3.365516|    0.785595|    0.024460|           5|   -1.561922|  5.0000e+01|  5.0000e+01|  5.0000e+01|
|         105|  3.5341e-01|   -3.422706|    0.788369|    0.023861|           5|   -1.263887|  5.0000e+01|  5.0000e+01|  5.0000e+01|
|         106|  3.5682e-01|   -3.436065|    0.790826|    0.023203|           5|   -1.573560|  5.0000e+01|  5.0000e+01|  5.0000e+01|
|         107|  3.5629e-01|   -3.459362|    0.793055|    0.022493|           5|   -1.456140|  5.0000e+01|  5.0000e+01|  5.0000e+01|
|         108|  3.5601e-01|   -3.456427|    0.795029|    0.021752|           5|   -1.510973|  5.0000e+01|  5.0000e+01|  5.0000e+01|
|         109|  3.5566e-01|   -3.457017|    0.796715|    0.020991|           5|   -1.328775|  5.0000e+01|  5.0000e+01|  5.0000e+01|
|         110|  3.5530e-01|   -3.449802|    0.798046|    0.020227|           5|   -1.402520|  5.0000e+01|  5.0000e+01|  5.0000e+01|
|         111|  3.5804e-01|   -3.439617|    0.799119|    0.019470|           5|   -1.254694|  5.0000e+01|  5.0000e+01|  5.0000e+01|
|         112|  3.5831e-01|   -3.424929|    0.799811|    0.018769|           5|   -0.854944|  5.0000e+01|  5.0000e+01|  5.0000e+01|
|         113|  3.5798e-01|   -3.420834|    0.800332|    0.018070|           5|   -1.188565|  5.0000e+01|  5.0000e+01|  5.0000e+01|
|         114|  3.5767e-01|   -3.412657|    0.800557|    0.017412|           5|   -1.415624|  5.0000e+01|  5.0000e+01|  5.0000e+01|
|         115|  3.5736e-01|   -3.407975|    0.800542|    0.016813|           5|   -1.283497|  5.0000e+01|  5.0000e+01|  5.0000e+01|
|         116|  3.6043e-01|   -3.393490|    0.800249|    0.016281|           5|   -1.374788|  5.0000e+01|  5.0000e+01|  5.0000e+01|
|         117|  3.6011e-01|   -3.392747|    0.799838|    0.015846|           5|   -0.846756|  5.0000e+01|  5.0000e+01|  5.0000e+01|
|         118|  3.5978e-01|   -3.395270|    0.799245|    0.015472|           5|   -1.315268|  5.0000e+01|  5.0000e+01|  5.0000e+01|
|         119|  3.5946e-01|   -3.387534|    0.798451|    0.015189|           5|   -1.468466|  5.0000e+01|  5.0000e+01|  5.0000e+01|
|         120|  3.5915e-01|   -3.391059|    0.797555|    0.015003|           5|   -1.105137|  5.0000e+01|  5.0000e+01|  5.0000e+01|
|         121|  3.6136e-01|   -3.395951|    0.796560|    0.014908|           5|   -1.556782|  5.0000e+01|  5.0000e+01|  5.0000e+01|
|         122|  3.6100e-01|   -3.402767|    0.795542|    0.014913|           5|   -1.396577|  5.0000e+01|  5.0000e+01|  5.0000e+01|
|         123|  3.6071e-01|   -3.419486|    0.794498|    0.015016|           5|   -1.427853|  5.0000e+01|  5.0000e+01|  5.0000e+01|
|         124|  3.6038e-01|   -3.416849|    0.793467|    0.015220|           5|   -1.407353|  5.0000e+01|  5.0000e+01|  5.0000e+01|
|         125|  3.6214e-01|   -3.436315|    0.792457|    0.015516|           5|   -1.533609|  5.0000e+01|  5.0000e+01|  5.0000e+01|
|         126|  3.6180e-01|   -3.448819|    0.791462|    0.015902|           5|   -1.617052|  5.0000e+01|  5.0000e+01|  5.0000e+01|
|         127|  3.6151e-01|   -3.467876|    0.790567|    0.016370|           5|   -1.489468|  5.0000e+01|  5.0000e+01|  5.0000e+01|
|         128|  3.6121e-01|   -3.483235|    0.789754|    0.016908|           5|   -1.306373|  5.0000e+01|  5.0000e+01|  5.0000e+01|
|         129|  3.6094e-01|   -3.510550|    0.789002|    0.017512|           5|   -1.412427|  5.0000e+01|  5.0000e+01|  5.0000e+01|
|         130|  3.6161e-01|   -3.524160|    0.788418|    0.018176|           5|   -1.570605|  5.0000e+01|  5.0000e+01|  5.0000e+01|
|         131|  3.6226e-01|   -3.547932|    0.787782|    0.018877|           5|   -1.481084|  5.0000e+01|  5.0000e+01|  5.0000e+01|
|         132|  3.6198e-01|   -3.561458|    0.787338|    0.019610|           5|   -1.499782|  5.0000e+01|  5.0000e+01|  5.0000e+01|
|         133|  3.6171e-01|   -3.578360|    0.786943|    0.020355|           5|   -1.582600|  5.0000e+01|  5.0000e+01|  5.0000e+01|
|         134|  3.6140e-01|   -3.593910|    0.786659|    0.021113|           5|   -1.587835|  5.0000e+01|  5.0000e+01|  5.0000e+01|
|         135|  3.6110e-01|   -3.600862|    0.786459|    0.021859|           5|   -1.657813|  5.0000e+01|  5.0000e+01|  5.0000e+01|
|         136|  3.6247e-01|   -3.604102|    0.786345|    0.022581|           5|   -1.678416|  5.0000e+01|  5.0000e+01|  5.0000e+01|
|         137|  3.6212e-01|   -3.601349|    0.786310|    0.023271|           5|   -1.630711|  5.0000e+01|  5.0000e+01|  5.0000e+01|
|         138|  3.6182e-01|   -3.598578|    0.786364|    0.023913|           5|   -1.607787|  5.0000e+01|  5.0000e+01|  5.0000e+01|
|         139|  3.6163e-01|   -3.591639|    0.786482|    0.024497|           5|   -1.546805|  5.0000e+01|  5.0000e+01|  5.0000e+01|
|         140|  3.6134e-01|   -3.583776|    0.786703|    0.025013|           5|   -1.655492|  5.0000e+01|  5.0000e+01|  5.0000e+01|
|         141|  3.6154e-01|   -3.574729|    0.786961|    0.025455|           5|   -1.647834|  5.0000e+01|  5.0000e+01|  5.0000e+01|
|         142|  3.6237e-01|   -3.567443|    0.787352|    0.025820|           5|   -1.709987|  5.0000e+01|  5.0000e+01|  5.0000e+01|
|         143|  3.6211e-01|   -3.561070|    0.787770|    0.026086|           5|   -1.379443|  5.0000e+01|  5.0000e+01|  5.0000e+01|
|         144|  3.6187e-01|   -3.553545|    0.788311|    0.026271|           5|   -1.535690|  5.0000e+01|  5.0000e+01|  5.0000e+01|
|         145|  3.6163e-01|   -3.550862|    0.788889|    0.026357|           5|   -1.516641|  5.0000e+01|  5.0000e+01|  5.0000e+01|
|         146|  3.6131e-01|   -3.553066|    0.789566|    0.026350|           5|   -1.487466|  5.0000e+01|  5.0000e+01|  5.0000e+01|
|         147|  3.6238e-01|   -3.556270|    0.790305|    0.026249|           5|   -1.403977|  5.0000e+01|  5.0000e+01|  5.0000e+01|
|         148|  3.6246e-01|   -3.556360|    0.791133|    0.026062|           5|   -1.272605|  5.0000e+01|  5.0000e+01|  5.0000e+01|
|         149|  3.6223e-01|   -3.565116|    0.792020|    0.025791|           5|   -1.216763|  5.0000e+01|  5.0000e+01|  5.0000e+01|
|         150|  3.6193e-01|   -3.570072|    0.793006|    0.025439|           5|   -1.145443|  5.0000e+01|  5.0000e+01|  5.0000e+01|
|         151|  3.6166e-01|   -3.583538|    0.794071|    0.025013|           5|   -1.387641|  5.0000e+01|  5.0000e+01|  5.0000e+01|
|         152|  3.6135e-01|   -3.608289|    0.795214|    0.024525|           5|   -1.176663|  5.0000e+01|  5.0000e+01|  5.0000e+01|
|         153|  3.6208e-01|   -3.626199|    0.796417|    0.023975|           5|   -1.323966|  5.0000e+01|  5.0000e+01|  5.0000e+01|
|         154|  3.6288e-01|   -3.645419|    0.797664|    0.023378|           5|   -1.282832|  5.0000e+01|  5.0000e+01|  5.0000e+01|
|         155|  3.6258e-01|   -3.668789|    0.798983|    0.022746|           5|   -1.341249|  5.0000e+01|  5.0000e+01|  5.0000e+01|
|         156|  3.6230e-01|   -3.697906|    0.800346|    0.022087|           5|   -1.322860|  5.0000e+01|  5.0000e+01|  5.0000e+01|
|         157|  3.6202e-01|   -3.710852|    0.801733|    0.021419|           5|   -1.260720|  5.0000e+01|  5.0000e+01|  5.0000e+01|
|         158|  3.6310e-01|   -3.737853|    0.803152|    0.020752|           5|   -1.214372|  5.0000e+01|  5.0000e+01|  5.0000e+01|
|         159|  3.6279e-01|   -3.761888|    0.804595|    0.020089|           5|   -1.353240|  5.0000e+01|  5.0000e+01|  5.0000e+01|
|         160|  3.6254e-01|   -3.761816|    0.805968|    0.019446|           5|   -1.424356|  5.0000e+01|  5.0000e+01|  5.0000e+01|
|         161|  3.6229e-01|   -3.793191|    0.807335|    0.018837|           5|   -1.408988|  5.0000e+01|  5.0000e+01|  5.0000e+01|
|         162|  3.6206e-01|   -3.806904|    0.808663|    0.018268|           5|   -1.402986|  5.0000e+01|  5.0000e+01|  5.0000e+01|
|         163|  3.6180e-01|   -3.806202|    0.809923|    0.017746|           5|   -1.417905|  5.0000e+01|  5.0000e+01|  5.0000e+01|
|         164|  3.6304e-01|   -3.803587|    0.811127|    0.017288|           5|   -1.323828|  5.0000e+01|  5.0000e+01|  5.0000e+01|
|         165|  3.6278e-01|   -3.798130|    0.812241|    0.016896|           5|   -1.374942|  5.0000e+01|  5.0000e+01|  5.0000e+01|
|         166|  3.6256e-01|   -3.793371|    0.813258|    0.016573|           5|   -1.452561|  5.0000e+01|  5.0000e+01|  5.0000e+01|
|         167|  3.6236e-01|   -3.800734|    0.814155|    0.016327|           5|   -1.183113|  5.0000e+01|  5.0000e+01|  5.0000e+01|
|         168|  3.6212e-01|   -3.799963|    0.814898|    0.016159|           5|   -1.079959|  5.0000e+01|  5.0000e+01|  5.0000e+01|
|         169|  3.6188e-01|   -3.777354|    0.815542|    0.016066|           5|   -1.137478|  5.0000e+01|  5.0000e+01|  5.0000e+01|
|         170|  3.6396e-01|   -3.773522|    0.816015|    0.016046|           5|   -1.242677|  5.0000e+01|  5.0000e+01|  5.0000e+01|
|         171|  3.6369e-01|   -3.786294|    0.816358|    0.016102|           5|   -1.026030|  5.0000e+01|  5.0000e+01|  5.0000e+01|
|         172|  3.6346e-01|   -3.785968|    0.816510|    0.016224|           5|   -1.155183|  5.0000e+01|  5.0000e+01|  5.0000e+01|
|         173|  3.6323e-01|   -3.768368|    0.816505|    0.016412|           5|   -1.359284|  5.0000e+01|  5.0000e+01|  5.0000e+01|
|         174|  3.6300e-01|   -3.810240|    0.816344|    0.016659|           5|   -1.251052|  5.0000e+01|  5.0000e+01|  5.0000e+01|
|         175|  3.6483e-01|   -3.816628|    0.816012|    0.016959|           5|   -1.207534|  5.0000e+01|  5.0000e+01|  5.0000e+01|
|         176|  3.6453e-01|   -3.816899|    0.815529|    0.017300|           5|   -1.292820|  5.0000e+01|  5.0000e+01|  5.0000e+01|
|         177|  3.6431e-01|   -3.814530|    0.814944|    0.017647|           5|   -0.845036|  5.0000e+01|  5.0000e+01|  5.0000e+01|
|         178|  3.6408e-01|   -3.836158|    0.814177|    0.018040|           5|   -1.070911|  5.0000e+01|  5.0000e+01|  5.0000e+01|
|         179|  3.6382e-01|   -3.845912|    0.813269|    0.018453|           5|   -1.129636|  5.0000e+01|  5.0000e+01|  5.0000e+01|
|         180|  3.6603e-01|   -3.869069|    0.812265|    0.018866|           5|   -0.974831|  5.0000e+01|  5.0000e+01|  5.0000e+01|
|         181|  3.6584e-01|   -3.889308|    0.811142|    0.019280|           5|   -0.979353|  5.0000e+01|  5.0000e+01|  5.0000e+01|
|         182|  3.6560e-01|   -3.924609|    0.810096|    0.019633|           5|   -0.627803|  5.0000e+01|  5.0000e+01|  5.0000e+01|
|         183|  3.6537e-01|   -3.833099|    0.808808|    0.020024|           5|   -1.289173|  5.0000e+01|  5.0000e+01|  5.0000e+01|
|         184|  3.6514e-01|   -3.957839|    0.807487|    0.020388|           5|   -1.026660|  5.0000e+01|  5.0000e+01|  5.0000e+01|
|         185|  3.6709e-01|   -3.990471|    0.806091|    0.020721|           5|   -1.190554|  5.0000e+01|  5.0000e+01|  5.0000e+01|
|         186|  3.6679e-01|   -4.002629|    0.804715|    0.021013|           5|   -0.983804|  5.0000e+01|  5.0000e+01|  5.0000e+01|
|         187|  3.6656e-01|   -3.989824|    0.803275|    0.021269|           5|   -1.425155|  5.0000e+01|  5.0000e+01|  5.0000e+01|
|         188|  3.6632e-01|   -4.038998|    0.801855|    0.021476|           5|   -1.050258|  5.0000e+01|  5.0000e+01|  5.0000e+01|
|         189|  3.6714e-01|   -4.056017|    0.800485|    0.021634|           5|   -1.297019|  5.0000e+01|  5.0000e+01|  5.0000e+01|
|         190|  3.6751e-01|   -4.065138|    0.799164|    0.021740|           5|   -1.240276|  5.0000e+01|  5.0000e+01|  5.0000e+01|
|         191|  3.6729e-01|   -4.082105|    0.797929|    0.021794|           5|   -1.453850|  5.0000e+01|  5.0000e+01|  5.0000e+01|
|         192|  3.6709e-01|   -4.089589|    0.796776|    0.021796|           5|   -1.305550|  5.0000e+01|  5.0000e+01|  5.0000e+01|
|         193|  3.6798e-01|   -4.090647|    0.795723|    0.021748|           5|   -1.371745|  5.0000e+01|  5.0000e+01|  5.0000e+01|
|         194|  3.6826e-01|   -4.091681|    0.794789|    0.021651|           5|   -1.250708|  5.0000e+01|  5.0000e+01|  5.0000e+01|
|         195|  3.6800e-01|   -4.089443|    0.793969|    0.021512|           5|   -1.287630|  5.0000e+01|  5.0000e+01|  5.0000e+01|
|         196|  3.6775e-01|   -4.082937|    0.793277|    0.021332|           5|   -1.142842|  5.0000e+01|  5.0000e+01|  5.0000e+01|
|         197|  3.6755e-01|   -4.089434|    0.792719|    0.021119|           5|   -1.077323|  5.0000e+01|  5.0000e+01|  5.0000e+01|
|         198|  3.6746e-01|   -4.072028|    0.792292|    0.020875|           5|   -1.004910|  5.0000e+01|  5.0000e+01|  5.0000e+01|
|         199|  3.6788e-01|   -4.056864|    0.792004|    0.020610|           5|   -1.065056|  5.0000e+01|  5.0000e+01|  5.0000e+01|
|         200|  3.6843e-01|   -4.018979|    0.791845|    0.020340|           5|   -0.962109|  5.0000e+01|  5.0000e+01|  5.0000e+01|
|         201|  3.6819e-01|   -4.072629|    0.791792|    0.020063|           5|   -0.809779|  5.0000e+01|  5.0000e+01|  5.0000e+01|
|         202|  3.6797e-01|   -4.055421|    0.791848|    0.019805|           5|   -0.675424|  5.0000e+01|  5.0000e+01|  5.0000e+01|
|         203|  3.6784e-01|   -4.041221|    0.791974|    0.019515|           5|   -0.904126|  5.0000e+01|  5.0000e+01|  5.0000e+01|
|         204|  3.6907e-01|   -4.058673|    0.792187|    0.019247|           5|   -0.644565|  5.0000e+01|  5.0000e+01|  5.0000e+01|
|         205|  3.6882e-01|   -4.021300|    0.792474|    0.018967|           5|   -0.892997|  5.0000e+01|  5.0000e+01|  5.0000e+01|
|         206|  3.6858e-01|   -3.998561|    0.792837|    0.018702|           5|   -0.960826|  5.0000e+01|  5.0000e+01|  5.0000e+01|
|         207|  3.6841e-01|   -3.920021|    0.793227|    0.018454|           5|   -1.212483|  5.0000e+01|  5.0000e+01|  5.0000e+01|
|         208|  3.6825e-01|   -3.963473|    0.793640|    0.018239|           5|   -0.703806|  5.0000e+01|  5.0000e+01|  5.0000e+01|
|         209|  3.6800e-01|   -4.031701|    0.794076|    0.018044|           5|   -0.900058|  5.0000e+01|  5.0000e+01|  5.0000e+01|
|         210|  3.6908e-01|   -4.069863|    0.794548|    0.017865|           5|   -0.905991|  5.0000e+01|  5.0000e+01|  5.0000e+01|
|         211|  3.6902e-01|   -4.070493|    0.795039|    0.017712|           5|   -1.002906|  5.0000e+01|  5.0000e+01|  5.0000e+01|
|         212|  3.6881e-01|   -4.096928|    0.795531|    0.017581|           5|   -0.982792|  5.0000e+01|  5.0000e+01|  5.0000e+01|
|         213|  3.6859e-01|   -4.054523|    0.795997|    0.017479|           5|   -1.186346|  5.0000e+01|  5.0000e+01|  5.0000e+01|
|         214|  3.6836e-01|   -4.086527|    0.796389|    0.017407|           5|   -0.815217|  5.0000e+01|  5.0000e+01|  5.0000e+01|
|         215|  3.6920e-01|   -4.027761|    0.796782|    0.017355|           5|   -1.059390|  5.0000e+01|  5.0000e+01|  5.0000e+01|
|         216|  3.6901e-01|   -4.062918|    0.797110|    0.017326|           5|   -1.135886|  5.0000e+01|  5.0000e+01|  5.0000e+01|
|         217|  3.6880e-01|   -4.070421|    0.797349|    0.017319|           5|   -0.809134|  5.0000e+01|  5.0000e+01|  5.0000e+01|
|         218|  3.6858e-01|   -4.075803|    0.797537|    0.017330|           5|   -1.426136|  5.0000e+01|  5.0000e+01|  5.0000e+01|
|         219|  3.6837e-01|   -4.086422|    0.797644|    0.017358|           5|   -1.189715|  5.0000e+01|  5.0000e+01|  5.0000e+01|
|         220|  3.6946e-01|   -4.085458|    0.797662|    0.017400|           5|   -1.438599|  5.0000e+01|  5.0000e+01|  5.0000e+01|
|         221|  3.6924e-01|   -4.091417|    0.797588|    0.017452|           5|   -1.274771|  5.0000e+01|  5.0000e+01|  5.0000e+01|
|         222|  3.6905e-01|   -4.091389|    0.797422|    0.017512|           5|   -1.306352|  5.0000e+01|  5.0000e+01|  5.0000e+01|
|         223|  3.6886e-01|   -4.096796|    0.797166|    0.017577|           5|   -1.411066|  5.0000e+01|  5.0000e+01|  5.0000e+01|
|         224|  3.6867e-01|   -4.106097|    0.796823|    0.017643|           5|   -1.257102|  5.0000e+01|  5.0000e+01|  5.0000e+01|
|         225|  3.6845e-01|   -4.112145|    0.796394|    0.017708|           5|   -1.599707|  5.0000e+01|  5.0000e+01|  5.0000e+01|
|         226|  3.6824e-01|   -4.121768|    0.795882|    0.017768|           5|   -1.622241|  5.0000e+01|  5.0000e+01|  5.0000e+01|
|         227|  3.6912e-01|   -4.128647|    0.795291|    0.017822|           5|   -1.635712|  5.0000e+01|  5.0000e+01|  5.0000e+01|
|         228|  3.6912e-01|   -4.132487|    0.794629|    0.017866|           5|   -1.545032|  5.0000e+01|  5.0000e+01|  5.0000e+01|
|         229|  3.6896e-01|   -4.133705|    0.793896|    0.017899|           5|   -1.613154|  5.0000e+01|  5.0000e+01|  5.0000e+01|
|         230|  3.6875e-01|   -4.138487|    0.793105|    0.017919|           5|   -1.455582|  5.0000e+01|  5.0000e+01|  5.0000e+01|
|         231|  3.6856e-01|   -4.135817|    0.792275|    0.017924|           5|   -1.021995|  5.0000e+01|  5.0000e+01|  5.0000e+01|
|         232|  3.6980e-01|   -4.129089|    0.791388|    0.017916|           5|   -1.573132|  5.0000e+01|  5.0000e+01|  5.0000e+01|
|         233|  3.6953e-01|   -4.122917|    0.790473|    0.017892|           5|   -1.492128|  5.0000e+01|  5.0000e+01|  5.0000e+01|
|         234|  3.6928e-01|   -4.111852|    0.789535|    0.017855|           5|   -1.274554|  5.0000e+01|  5.0000e+01|  5.0000e+01|
|         235|  3.6904e-01|   -4.095293|    0.788579|    0.017802|           5|   -1.033316|  5.0000e+01|  5.0000e+01|  5.0000e+01|
|         236|  3.6912e-01|   -4.078821|    0.787610|    0.017737|           5|   -1.620936|  5.0000e+01|  5.0000e+01|  5.0000e+01|
|         237|  3.6978e-01|   -4.070806|    0.786641|    0.017660|           5|   -1.513610|  5.0000e+01|  5.0000e+01|  5.0000e+01|
|         238|  3.6957e-01|   -4.058530|    0.785681|    0.017572|           5|   -1.617483|  5.0000e+01|  5.0000e+01|  5.0000e+01|
|         239|  3.6939e-01|   -4.046364|    0.784736|    0.017477|           5|   -1.617809|  5.0000e+01|  5.0000e+01|  5.0000e+01|
|         240|  3.6922e-01|   -4.034221|    0.783815|    0.017375|           5|   -1.488194|  5.0000e+01|  5.0000e+01|  5.0000e+01|
|         241|  3.7020e-01|   -4.027165|    0.782922|    0.017269|           5|   -1.488008|  5.0000e+01|  5.0000e+01|  5.0000e+01|
|         242|  3.6996e-01|   -4.019199|    0.782064|    0.017163|           5|   -1.602703|  5.0000e+01|  5.0000e+01|  5.0000e+01|
|         243|  3.6973e-01|   -4.015602|    0.781240|    0.017056|           5|   -1.546424|  5.0000e+01|  5.0000e+01|  5.0000e+01|
|         244|  3.6953e-01|   -4.012638|    0.780457|    0.016953|           5|   -1.471677|  5.0000e+01|  5.0000e+01|  5.0000e+01|
|         245|  3.6935e-01|   -4.016413|    0.779717|    0.016856|           5|   -1.367856|  5.0000e+01|  5.0000e+01|  5.0000e+01|
|         246|  3.6918e-01|   -4.019481|    0.779017|    0.016765|           5|   -1.274400|  5.0000e+01|  5.0000e+01|  5.0000e+01|
|         247|  3.6913e-01|   -4.026311|    0.778360|    0.016683|           5|   -1.326757|  5.0000e+01|  5.0000e+01|  5.0000e+01|
|         248|  3.7003e-01|   -4.036252|    0.777748|    0.016611|           5|   -1.325205|  5.0000e+01|  5.0000e+01|  5.0000e+01|
|         249|  3.6980e-01|   -4.044362|    0.777179|    0.016551|           5|   -1.122414|  5.0000e+01|  5.0000e+01|  5.0000e+01|
|         250|  3.6961e-01|   -4.047923|    0.776650|    0.016502|           5|   -1.023265|  5.0000e+01|  5.0000e+01|  5.0000e+01|
|         251|  3.6940e-01|   -3.798015|    0.776156|    0.016466|           5|   -1.464959|  5.0000e+01|  5.0000e+01|  5.0000e+01|
|         252|  3.6921e-01|   -4.056583|    0.775698|    0.016442|           5|   -1.182512|  5.0000e+01|  5.0000e+01|  5.0000e+01|
|         253|  3.7017e-01|   -4.087046|    0.775264|    0.016430|           5|   -1.110441|  5.0000e+01|  5.0000e+01|  5.0000e+01|
|         254|  3.6992e-01|   -4.093860|    0.774862|    0.016430|           5|   -1.039245|  5.0000e+01|  5.0000e+01|  5.0000e+01|
|         255|  3.6973e-01|   -4.098328|    0.774483|    0.016440|           5|   -1.078791|  5.0000e+01|  5.0000e+01|  5.0000e+01|
|         256|  3.6951e-01|   -4.088390|    0.774132|    0.016460|           5|   -0.998080|  5.0000e+01|  5.0000e+01|  5.0000e+01|
|         257|  3.6930e-01|   -4.077883|    0.773800|    0.016488|           5|   -1.014333|  5.0000e+01|  5.0000e+01|  5.0000e+01|
|         258|  3.7002e-01|   -4.077021|    0.773490|    0.016521|           5|   -0.788540|  5.0000e+01|  5.0000e+01|  5.0000e+01|
|         259|  3.6982e-01|   -4.063347|    0.773195|    0.016560|           5|   -0.810598|  5.0000e+01|  5.0000e+01|  5.0000e+01|
|         260|  3.6961e-01|   -4.064285|    0.772899|    0.016603|           5|   -1.168269|  5.0000e+01|  5.0000e+01|  5.0000e+01|
|         261|  3.6944e-01|   -4.062810|    0.772616|    0.016649|           5|   -0.946796|  5.0000e+01|  5.0000e+01|  5.0000e+01|
|         262|  3.6926e-01|   -4.048785|    0.772341|    0.016694|           5|   -0.885291|  5.0000e+01|  5.0000e+01|  5.0000e+01|
|         263|  3.7016e-01|   -4.040958|    0.772076|    0.016738|           5|   -1.042578|  5.0000e+01|  5.0000e+01|  5.0000e+01|
|         264|  3.6996e-01|   -4.045887|    0.771830|    0.016777|           5|   -0.904738|  5.0000e+01|  5.0000e+01|  5.0000e+01|
|         265|  3.6977e-01|   -4.017437|    0.771580|    0.016812|           5|   -0.887378|  5.0000e+01|  5.0000e+01|  5.0000e+01|
|         266|  3.6961e-01|   -4.039614|    0.771330|    0.016842|           5|   -0.957713|  5.0000e+01|  5.0000e+01|  5.0000e+01|
|         267|  3.6944e-01|   -4.029240|    0.771076|    0.016864|           5|   -0.981572|  5.0000e+01|  5.0000e+01|  5.0000e+01|
|         268|  3.6926e-01|   -4.037499|    0.770822|    0.016879|           5|   -1.068326|  5.0000e+01|  5.0000e+01|  5.0000e+01|
|         269|  3.6930e-01|   -4.028867|    0.770572|    0.016885|           5|   -0.982718|  5.0000e+01|  5.0000e+01|  5.0000e+01|
|         270|  3.6999e-01|   -4.034485|    0.770314|    0.016881|           5|   -1.220974|  5.0000e+01|  5.0000e+01|  5.0000e+01|
|         271|  3.6981e-01|   -4.048167|    0.770060|    0.016868|           5|   -1.063695|  5.0000e+01|  5.0000e+01|  5.0000e+01|
|         272|  3.6965e-01|   -4.099805|    0.769805|    0.016844|           5|   -1.111866|  5.0000e+01|  5.0000e+01|  5.0000e+01|
|         273|  3.6946e-01|   -4.103628|    0.769556|    0.016811|           5|   -1.018265|  5.0000e+01|  5.0000e+01|  5.0000e+01|
|         274|  3.6930e-01|   -4.130183|    0.769306|    0.016768|           5|   -1.137491|  5.0000e+01|  5.0000e+01|  5.0000e+01|
|         275|  3.7057e-01|   -4.155780|    0.769055|    0.016715|           5|   -1.066822|  5.0000e+01|  5.0000e+01|  5.0000e+01|
|         276|  3.7037e-01|   -4.180238|    0.768804|    0.016655|           5|   -0.881144|  5.0000e+01|  5.0000e+01|  5.0000e+01|
|         277|  3.7018e-01|   -4.175850|    0.768548|    0.016585|           5|   -1.146566|  5.0000e+01|  5.0000e+01|  5.0000e+01|
|         278|  3.6997e-01|   -4.209179|    0.768284|    0.016508|           5|   -1.088814|  5.0000e+01|  5.0000e+01|  5.0000e+01|
|         279|  3.6978e-01|   -4.217574|    0.768012|    0.016425|           5|   -0.973362|  5.0000e+01|  5.0000e+01|  5.0000e+01|
|         280|  3.7102e-01|   -4.216731|    0.767731|    0.016336|           5|   -1.034193|  5.0000e+01|  5.0000e+01|  5.0000e+01|
|         281|  3.7083e-01|   -4.245863|    0.767445|    0.016244|           5|   -1.226359|  5.0000e+01|  5.0000e+01|  5.0000e+01|
|         282|  3.7065e-01|   -4.254351|    0.767150|    0.016150|           5|   -0.941896|  5.0000e+01|  5.0000e+01|  5.0000e+01|
|         283|  3.7046e-01|   -4.273122|    0.766847|    0.016055|           5|   -0.971717|  5.0000e+01|  5.0000e+01|  5.0000e+01|
|         284|  3.7030e-01|   -4.273184|    0.766528|    0.015960|           5|   -1.103698|  5.0000e+01|  5.0000e+01|  5.0000e+01|
|         285|  3.7157e-01|   -4.279473|    0.766216|    0.015872|           5|   -0.948730|  5.0000e+01|  5.0000e+01|  5.0000e+01|
|         286|  3.7137e-01|   -4.276251|    0.765883|    0.015784|           5|   -1.122577|  5.0000e+01|  5.0000e+01|  5.0000e+01|
|         287|  3.7118e-01|   -4.277041|    0.765537|    0.015700|           5|   -1.001017|  5.0000e+01|  5.0000e+01|  5.0000e+01|
|         288|  3.7102e-01|   -4.266443|    0.765204|    0.015628|           5|   -0.684198|  5.0000e+01|  5.0000e+01|  5.0000e+01|
|         289|  3.7083e-01|   -4.255307|    0.764839|    0.015558|           5|   -1.047308|  5.0000e+01|  5.0000e+01|  5.0000e+01|
|         290|  3.7200e-01|   -4.258443|    0.764461|    0.015495|           5|   -1.150146|  5.0000e+01|  5.0000e+01|  5.0000e+01|
|         291|  3.7176e-01|   -4.269980|    0.764076|    0.015441|           5|   -0.908154|  5.0000e+01|  5.0000e+01|  5.0000e+01|
|         292|  3.7157e-01|   -4.260282|    0.763666|    0.015394|           5|   -1.150968|  5.0000e+01|  5.0000e+01|  5.0000e+01|
|         293|  3.7137e-01|   -4.278671|    0.763247|    0.015356|           5|   -1.058579|  5.0000e+01|  5.0000e+01|  5.0000e+01|
|         294|  3.7203e-01|   -4.283935|    0.762813|    0.015328|           5|   -1.085243|  5.0000e+01|  5.0000e+01|  5.0000e+01|
|         295|  3.7185e-01|   -4.297173|    0.762371|    0.015309|           5|   -1.164842|  5.0000e+01|  5.0000e+01|  5.0000e+01|
|         296|  3.7173e-01|   -4.315548|    0.761918|    0.015299|           5|   -1.052680|  5.0000e+01|  5.0000e+01|  5.0000e+01|
|         297|  3.7157e-01|   -4.329734|    0.761472|    0.015299|           5|   -0.829797|  5.0000e+01|  5.0000e+01|  5.0000e+01|
|         298|  3.7248e-01|   -4.345278|    0.761010|    0.015307|           5|   -0.954695|  5.0000e+01|  5.0000e+01|  5.0000e+01|
|         299|  3.7226e-01|   -4.361640|    0.760535|    0.015322|           5|   -1.111347|  5.0000e+01|  5.0000e+01|  5.0000e+01|
|         300|  3.7206e-01|   -4.400554|    0.760059|    0.015345|           5|   -1.172530|  5.0000e+01|  5.0000e+01|  5.0000e+01|
|         301|  3.7187e-01|   -4.420994|    0.759580|    0.015373|           5|   -1.125590|  5.0000e+01|  5.0000e+01|  5.0000e+01|
|         302|  3.7169e-01|   -4.448955|    0.759116|    0.015406|           5|   -0.786704|  5.0000e+01|  5.0000e+01|  5.0000e+01|
|         303|  3.7252e-01|   -4.459101|    0.758639|    0.015444|           5|   -1.016786|  5.0000e+01|  5.0000e+01|  5.0000e+01|
|         304|  3.7233e-01|   -4.482269|    0.758166|    0.015485|           5|   -0.971079|  5.0000e+01|  5.0000e+01|  5.0000e+01|
|         305|  3.7216e-01|   -4.491709|    0.757697|    0.015529|           5|   -1.027229|  5.0000e+01|  5.0000e+01|  5.0000e+01|
|         306|  3.7201e-01|   -4.483168|    0.757251|    0.015571|           5|   -0.878766|  5.0000e+01|  5.0000e+01|  5.0000e+01|
|         307|  3.7230e-01|   -4.510327|    0.756815|    0.015613|           5|   -0.752788|  5.0000e+01|  5.0000e+01|  5.0000e+01|
|         308|  3.7265e-01|   -4.464566|    0.756456|    0.015647|           5|   -0.531189|  5.0000e+01|  5.0000e+01|  5.0000e+01|
|         309|  3.7249e-01|   -4.467972|    0.756017|    0.015687|           5|   -0.873531|  5.0000e+01|  5.0000e+01|  5.0000e+01|
|         310|  3.7232e-01|   -4.448600|    0.755597|    0.015725|           5|   -0.932312|  5.0000e+01|  5.0000e+01|  5.0000e+01|
|         311|  3.7252e-01|   -4.471604|    0.755195|    0.015759|           5|   -0.921828|  5.0000e+01|  5.0000e+01|  5.0000e+01|
|         312|  3.7300e-01|   -4.473771|    0.754798|    0.015791|           5|   -0.869127|  5.0000e+01|  5.0000e+01|  5.0000e+01|
|         313|  3.7283e-01|   -4.476302|    0.754445|    0.015816|           5|   -0.777354|  5.0000e+01|  5.0000e+01|  5.0000e+01|
|         314|  3.7265e-01|   -4.471942|    0.754104|    0.015836|           5|   -0.778828|  5.0000e+01|  5.0000e+01|  5.0000e+01|
|         315|  3.7250e-01|   -4.473582|    0.753766|    0.015852|           5|   -0.705217|  5.0000e+01|  5.0000e+01|  5.0000e+01|
|         316|  3.7235e-01|   -4.450414|    0.753454|    0.015861|           5|   -0.758283|  5.0000e+01|  5.0000e+01|  5.0000e+01|
|         317|  3.7219e-01|   -4.465058|    0.753136|    0.015864|           5|   -0.900517|  5.0000e+01|  5.0000e+01|  5.0000e+01|
|         318|  3.7288e-01|   -4.458436|    0.752843|    0.015861|           5|   -0.814244|  5.0000e+01|  5.0000e+01|  5.0000e+01|
|         319|  3.7271e-01|   -4.480272|    0.752576|    0.015853|           5|   -0.591090|  5.0000e+01|  5.0000e+01|  5.0000e+01|
|         320|  3.7256e-01|   -4.439591|    0.752329|    0.015839|           5|   -0.851334|  5.0000e+01|  5.0000e+01|  5.0000e+01|
|         321|  3.7239e-01|   -4.527216|    0.752088|    0.015819|           5|   -0.855469|  5.0000e+01|  5.0000e+01|  5.0000e+01|
|         322|  3.7312e-01|   -4.529712|    0.751882|    0.015796|           5|   -0.769814|  5.0000e+01|  5.0000e+01|  5.0000e+01|
|         323|  3.7304e-01|   -4.532033|    0.751683|    0.015768|           5|   -0.629198|  5.0000e+01|  5.0000e+01|  5.0000e+01|
|         324|  3.7287e-01|   -4.496787|    0.751488|    0.015734|           5|   -0.774991|  5.0000e+01|  5.0000e+01|  5.0000e+01|
|         325|  3.7269e-01|   -4.494369|    0.751308|    0.015696|           5|   -0.920472|  5.0000e+01|  5.0000e+01|  5.0000e+01|
|         326|  3.7255e-01|   -4.561379|    0.751138|    0.015654|           5|   -0.907629|  5.0000e+01|  5.0000e+01|  5.0000e+01|
|         327|  3.7237e-01|   -4.532939|    0.750985|    0.015610|           5|   -0.830732|  5.0000e+01|  5.0000e+01|  5.0000e+01|
|         328|  3.7219e-01|   -4.566152|    0.750844|    0.015564|           5|   -0.781586|  5.0000e+01|  5.0000e+01|  5.0000e+01|
|         329|  3.7298e-01|   -4.531429|    0.750709|    0.015517|           5|   -0.850200|  5.0000e+01|  5.0000e+01|  5.0000e+01|
|         330|  3.7280e-01|   -4.568363|    0.750578|    0.015468|           5|   -0.807984|  5.0000e+01|  5.0000e+01|  5.0000e+01|
|         331|  3.7264e-01|   -4.572225|    0.750449|    0.015418|           5|   -0.817536|  5.0000e+01|  5.0000e+01|  5.0000e+01|
|         332|  3.7245e-01|   -4.574161|    0.750331|    0.015370|           5|   -0.794915|  5.0000e+01|  5.0000e+01|  5.0000e+01|
|         333|  3.7230e-01|   -4.604575|    0.750210|    0.015321|           5|   -0.848987|  5.0000e+01|  5.0000e+01|  5.0000e+01|
|         334|  3.7292e-01|   -4.586458|    0.750094|    0.015274|           5|   -0.826311|  5.0000e+01|  5.0000e+01|  5.0000e+01|
|         335|  3.7295e-01|   -4.574649|    0.749978|    0.015228|           5|   -0.917199|  5.0000e+01|  5.0000e+01|  5.0000e+01|
|         336|  3.7276e-01|   -4.540768|    0.749866|    0.015187|           5|   -0.872275|  5.0000e+01|  5.0000e+01|  5.0000e+01|
|         337|  3.7260e-01|   -4.624558|    0.749755|    0.015149|           5|   -0.720510|  5.0000e+01|  5.0000e+01|  5.0000e+01|
|         338|  3.7268e-01|   -4.569153|    0.749647|    0.015117|           5|   -0.867321|  5.0000e+01|  5.0000e+01|  5.0000e+01|
|         339|  3.7296e-01|   -4.639915|    0.749529|    0.015087|           5|   -0.810780|  5.0000e+01|  5.0000e+01|  5.0000e+01|
|         340|  3.7280e-01|   -4.664837|    0.749403|    0.015060|           5|   -0.754497|  5.0000e+01|  5.0000e+01|  5.0000e+01|
|         341|  3.7263e-01|   -4.685027|    0.749303|    0.015042|           5|   -0.416629|  5.0000e+01|  5.0000e+01|  5.0000e+01|
|         342|  3.7248e-01|   -4.659934|    0.749166|    0.015023|           5|   -0.638564|  5.0000e+01|  5.0000e+01|  5.0000e+01|
|         343|  3.7234e-01|   -4.577550|    0.749012|    0.015007|           5|   -0.754317|  5.0000e+01|  5.0000e+01|  5.0000e+01|
|         344|  3.7301e-01|   -4.648426|    0.748859|    0.014996|           5|   -0.925893|  5.0000e+01|  5.0000e+01|  5.0000e+01|
|         345|  3.7284e-01|   -4.715460|    0.748713|    0.014990|           5|   -0.720061|  5.0000e+01|  5.0000e+01|  5.0000e+01|
|         346|  3.7267e-01|   -4.706666|    0.748549|    0.014988|           5|   -0.853868|  5.0000e+01|  5.0000e+01|  5.0000e+01|
|         347|  3.7249e-01|   -4.743530|    0.748378|    0.014989|           5|   -0.794900|  5.0000e+01|  5.0000e+01|  5.0000e+01|
|         348|  3.7232e-01|   -4.722852|    0.748191|    0.014994|           5|   -0.916833|  5.0000e+01|  5.0000e+01|  5.0000e+01|
|         349|  3.7216e-01|   -4.763426|    0.747999|    0.015002|           5|   -0.798036|  5.0000e+01|  5.0000e+01|  5.0000e+01|
|         350|  3.7201e-01|   -4.786005|    0.747802|    0.015012|           5|   -0.734026|  5.0000e+01|  5.0000e+01|  5.0000e+01|
|         351|  3.7252e-01|   -4.746423|    0.747588|    0.015026|           5|   -1.000368|  5.0000e+01|  5.0000e+01|  5.0000e+01|
|         352|  3.7257e-01|   -4.776402|    0.747370|    0.015041|           5|   -0.828729|  5.0000e+01|  5.0000e+01|  5.0000e+01|
|         353|  3.7243e-01|   -4.762558|    0.747158|    0.015058|           5|   -0.756691|  5.0000e+01|  5.0000e+01|  5.0000e+01|
|         354|  3.7227e-01|   -4.772849|    0.746937|    0.015076|           5|   -0.660920|  5.0000e+01|  5.0000e+01|  5.0000e+01|
|         355|  3.7208e-01|   -4.783165|    0.746707|    0.015095|           5|   -0.831916|  5.0000e+01|  5.0000e+01|  5.0000e+01|
|         356|  3.7288e-01|   -4.739716|    0.746464|    0.015115|           5|   -1.020254|  5.0000e+01|  5.0000e+01|  5.0000e+01|
|         357|  3.7268e-01|   -4.803776|    0.746221|    0.015135|           5|   -0.760140|  5.0000e+01|  5.0000e+01|  5.0000e+01|
|         358|  3.7250e-01|   -4.775620|    0.745974|    0.015155|           5|   -0.828488|  5.0000e+01|  5.0000e+01|  5.0000e+01|
|         359|  3.7233e-01|   -4.779602|    0.745723|    0.015174|           5|   -0.908173|  5.0000e+01|  5.0000e+01|  5.0000e+01|
|         360|  3.7216e-01|   -4.800751|    0.745474|    0.015192|           5|   -0.751485|  5.0000e+01|  5.0000e+01|  5.0000e+01|
|         361|  3.7280e-01|   -4.809669|    0.745222|    0.015209|           5|   -0.781897|  5.0000e+01|  5.0000e+01|  5.0000e+01|
|         362|  3.7266e-01|   -4.796789|    0.744975|    0.015223|           5|   -0.671455|  5.0000e+01|  5.0000e+01|  5.0000e+01|
|         363|  3.7250e-01|   -4.804787|    0.744721|    0.015236|           5|   -0.750015|  5.0000e+01|  5.0000e+01|  5.0000e+01|
|         364|  3.7234e-01|   -4.723911|    0.744468|    0.015246|           5|   -0.891257|  5.0000e+01|  5.0000e+01|  5.0000e+01|
|         365|  3.7222e-01|   -4.765928|    0.744215|    0.015254|           5|   -0.888385|  5.0000e+01|  5.0000e+01|  5.0000e+01|
|         366|  3.7269e-01|   -4.804029|    0.743966|    0.015259|           5|   -0.843789|  5.0000e+01|  5.0000e+01|  5.0000e+01|
|         367|  3.7256e-01|   -4.788671|    0.743712|    0.015262|           5|   -0.834239|  5.0000e+01|  5.0000e+01|  5.0000e+01|
|         368|  3.7244e-01|   -4.775705|    0.743472|    0.015263|           5|   -0.759054|  5.0000e+01|  5.0000e+01|  5.0000e+01|
|         369|  3.7229e-01|   -4.787768|    0.743237|    0.015260|           5|   -0.906125|  5.0000e+01|  5.0000e+01|  5.0000e+01|
|         370|  3.7214e-01|   -4.808634|    0.743003|    0.015255|           5|   -0.931252|  5.0000e+01|  5.0000e+01|  5.0000e+01|
|         371|  3.7275e-01|   -4.781253|    0.742782|    0.015248|           5|   -0.831249|  5.0000e+01|  5.0000e+01|  5.0000e+01|
|         372|  3.7258e-01|   -4.821442|    0.742569|    0.015238|           5|   -0.855859|  5.0000e+01|  5.0000e+01|  5.0000e+01|
|         373|  3.7241e-01|   -4.821449|    0.742362|    0.015226|           5|   -0.909228|  5.0000e+01|  5.0000e+01|  5.0000e+01|
|         374|  3.7226e-01|   -4.848051|    0.742172|    0.015213|           5|   -0.758977|  5.0000e+01|  5.0000e+01|  5.0000e+01|
|         375|  3.7210e-01|   -4.832306|    0.742001|    0.015200|           5|   -0.625923|  5.0000e+01|  5.0000e+01|  5.0000e+01|
|         376|  3.7198e-01|   -4.842763|    0.741803|    0.015180|           5|   -0.753108|  5.0000e+01|  5.0000e+01|  5.0000e+01|
|         377|  3.7186e-01|   -4.835734|    0.741620|    0.015160|           5|   -0.819992|  5.0000e+01|  5.0000e+01|  5.0000e+01|
|         378|  3.7247e-01|   -4.746929|    0.741449|    0.015139|           5|   -0.925003|  5.0000e+01|  5.0000e+01|  5.0000e+01|
|         379|  3.7237e-01|   -4.862632|    0.741301|    0.015120|           5|   -0.700008|  5.0000e+01|  5.0000e+01|  5.0000e+01|
|         380|  3.7225e-01|   -4.838189|    0.741146|    0.015098|           5|   -0.876798|  5.0000e+01|  5.0000e+01|  5.0000e+01|
|         381|  3.7210e-01|   -4.838223|    0.740997|    0.015076|           5|   -0.836431|  5.0000e+01|  5.0000e+01|  5.0000e+01|
|         382|  3.7195e-01|   -4.840281|    0.740863|    0.015054|           5|   -0.668998|  5.0000e+01|  5.0000e+01|  5.0000e+01|
|         383|  3.7284e-01|   -4.812599|    0.740736|    0.015034|           5|   -0.593313|  5.0000e+01|  5.0000e+01|  5.0000e+01|
|         384|  3.7266e-01|   -4.788849|    0.740608|    0.015012|           5|   -0.954815|  5.0000e+01|  5.0000e+01|  5.0000e+01|
|         385|  3.7251e-01|   -4.848894|    0.740491|    0.014992|           5|   -0.688790|  5.0000e+01|  5.0000e+01|  5.0000e+01|
|         386|  3.7235e-01|   -4.842904|    0.740387|    0.014974|           5|   -0.571298|  5.0000e+01|  5.0000e+01|  5.0000e+01|
|         387|  3.7278e-01|   -4.837111|    0.740277|    0.014956|           5|   -0.694845|  5.0000e+01|  5.0000e+01|  5.0000e+01|
|         388|  3.7263e-01|   -4.780981|    0.740197|    0.014943|           5|   -0.529534|  5.0000e+01|  5.0000e+01|  5.0000e+01|
|         389|  3.7250e-01|   -4.815208|    0.740085|    0.014925|           5|   -0.879209|  5.0000e+01|  5.0000e+01|  5.0000e+01|
|         390|  3.7232e-01|   -4.814335|    0.739980|    0.014909|           5|   -0.799608|  5.0000e+01|  5.0000e+01|  5.0000e+01|
|         391|  3.7215e-01|   -4.829512|    0.739884|    0.014896|           5|   -0.697987|  5.0000e+01|  5.0000e+01|  5.0000e+01|
|         392|  3.7276e-01|   -4.816282|    0.739780|    0.014882|           5|   -0.928720|  5.0000e+01|  5.0000e+01|  5.0000e+01|
|         393|  3.7259e-01|   -4.808665|    0.739679|    0.014871|           5|   -0.893785|  5.0000e+01|  5.0000e+01|  5.0000e+01|
|         394|  3.7241e-01|   -4.829323|    0.739578|    0.014860|           5|   -0.824241|  5.0000e+01|  5.0000e+01|  5.0000e+01|
|         395|  3.7229e-01|   -4.855690|    0.739473|    0.014851|           5|   -0.889814|  5.0000e+01|  5.0000e+01|  5.0000e+01|
|         396|  3.7212e-01|   -4.859668|    0.739371|    0.014844|           5|   -0.738532|  5.0000e+01|  5.0000e+01|  5.0000e+01|
|         397|  3.7197e-01|   -4.854378|    0.739264|    0.014837|           5|   -0.800739|  5.0000e+01|  5.0000e+01|  5.0000e+01|
|         398|  3.7243e-01|   -4.829819|    0.739151|    0.014831|           5|   -0.993723|  5.0000e+01|  5.0000e+01|  5.0000e+01|
|         399|  3.7224e-01|   -4.870976|    0.739038|    0.014827|           5|   -0.824866|  5.0000e+01|  5.0000e+01|  5.0000e+01|
|         400|  3.7206e-01|   -4.867710|    0.738928|    0.014823|           5|   -0.721130|  5.0000e+01|  5.0000e+01|  5.0000e+01|
|         401|  3.7192e-01|   -4.852134|    0.738808|    0.014821|           5|   -0.828176|  5.0000e+01|  5.0000e+01|  5.0000e+01|
|         402|  3.7177e-01|   -4.859640|    0.738689|    0.014819|           5|   -0.784443|  5.0000e+01|  5.0000e+01|  5.0000e+01|
|         403|  3.7166e-01|   -4.876461|    0.738573|    0.014817|           5|   -0.684845|  5.0000e+01|  5.0000e+01|  5.0000e+01|
|         404|  3.7216e-01|   -4.873867|    0.738445|    0.014817|           5|   -0.777232|  5.0000e+01|  5.0000e+01|  5.0000e+01|
|         405|  3.7201e-01|   -4.893786|    0.738315|    0.014816|           5|   -0.852976|  5.0000e+01|  5.0000e+01|  5.0000e+01|
|         406|  3.7186e-01|   -4.934550|    0.738181|    0.014816|           5|   -0.861277|  5.0000e+01|  5.0000e+01|  5.0000e+01|
|         407|  3.7173e-01|   -4.906120|    0.738048|    0.014816|           5|   -0.731970|  5.0000e+01|  5.0000e+01|  5.0000e+01|
|         408|  3.7159e-01|   -4.939305|    0.737908|    0.014816|           5|   -0.631145|  5.0000e+01|  5.0000e+01|  5.0000e+01|
|         409|  3.7147e-01|   -4.902041|    0.737757|    0.014815|           5|   -0.888763|  5.0000e+01|  5.0000e+01|  5.0000e+01|
|         410|  3.7136e-01|   -4.952802|    0.737610|    0.014815|           5|   -0.717825|  5.0000e+01|  5.0000e+01|  5.0000e+01|
|         411|  3.7193e-01|   -4.944261|    0.737459|    0.014814|           5|   -0.750463|  5.0000e+01|  5.0000e+01|  5.0000e+01|
|         412|  3.7179e-01|   -4.939461|    0.737312|    0.014813|           5|   -0.627211|  5.0000e+01|  5.0000e+01|  5.0000e+01|
|         413|  3.7168e-01|   -4.927003|    0.737166|    0.014811|           5|   -0.624743|  5.0000e+01|  5.0000e+01|  5.0000e+01|
|         414|  3.7156e-01|   -4.909502|    0.737002|    0.014809|           5|   -0.793290|  5.0000e+01|  5.0000e+01|  5.0000e+01|
|         415|  3.7143e-01|   -4.907005|    0.736837|    0.014807|           5|   -0.808053|  5.0000e+01|  5.0000e+01|  5.0000e+01|
|         416|  3.7222e-01|   -4.889647|    0.736673|    0.014804|           5|   -0.866356|  5.0000e+01|  5.0000e+01|  5.0000e+01|
|         417|  3.7204e-01|   -4.919665|    0.736515|    0.014801|           5|   -0.667629|  5.0000e+01|  5.0000e+01|  5.0000e+01|
|         418|  3.7193e-01|   -4.928045|    0.736347|    0.014797|           5|   -0.717071|  5.0000e+01|  5.0000e+01|  5.0000e+01|
|         419|  3.7179e-01|   -4.853593|    0.736192|    0.014793|           5|   -0.697045|  5.0000e+01|  5.0000e+01|  5.0000e+01|
|         420|  3.7165e-01|   -4.943522|    0.736025|    0.014788|           5|   -0.806112|  5.0000e+01|  5.0000e+01|  5.0000e+01|
|         421|  3.7251e-01|   -4.944812|    0.735858|    0.014783|           5|   -0.820940|  5.0000e+01|  5.0000e+01|  5.0000e+01|
|         422|  3.7235e-01|   -4.969701|    0.735694|    0.014778|           5|   -0.808073|  5.0000e+01|  5.0000e+01|  5.0000e+01|
|         423|  3.7221e-01|   -4.949200|    0.735534|    0.014772|           5|   -0.968929|  5.0000e+01|  5.0000e+01|  5.0000e+01|
|         424|  3.7210e-01|   -4.987720|    0.735373|    0.014766|           5|   -0.877873|  5.0000e+01|  5.0000e+01|  5.0000e+01|
|         425|  3.7197e-01|   -4.995991|    0.735214|    0.014760|           5|   -0.883607|  5.0000e+01|  5.0000e+01|  5.0000e+01|
|         426|  3.7277e-01|   -5.003583|    0.735054|    0.014754|           5|   -0.834006|  5.0000e+01|  5.0000e+01|  5.0000e+01|
|         427|  3.7264e-01|   -4.996042|    0.734898|    0.014748|           5|   -0.874345|  5.0000e+01|  5.0000e+01|  5.0000e+01|
|         428|  3.7250e-01|   -5.012614|    0.734746|    0.014742|           5|   -0.879973|  5.0000e+01|  5.0000e+01|  5.0000e+01|
|         429|  3.7234e-01|   -5.017489|    0.734603|    0.014736|           5|   -0.686570|  5.0000e+01|  5.0000e+01|  5.0000e+01|
|         430|  3.7220e-01|   -5.022831|    0.734461|    0.014730|           5|   -0.680010|  5.0000e+01|  5.0000e+01|  5.0000e+01|
|         431|  3.7282e-01|   -5.025363|    0.734321|    0.014724|           5|   -0.630997|  5.0000e+01|  5.0000e+01|  5.0000e+01|
|         432|  3.7293e-01|   -5.025265|    0.734182|    0.014718|           5|   -0.576200|  5.0000e+01|  5.0000e+01|  5.0000e+01|
|         433|  3.7279e-01|   -4.996511|    0.734040|    0.014712|           5|   -0.818489|  5.0000e+01|  5.0000e+01|  5.0000e+01|
|         434|  3.7265e-01|   -5.012714|    0.733907|    0.014706|           5|   -0.642350|  5.0000e+01|  5.0000e+01|  5.0000e+01|
|         435|  3.7311e-01|   -5.017709|    0.733770|    0.014701|           5|   -0.694195|  5.0000e+01|  5.0000e+01|  5.0000e+01|
|         436|  3.7296e-01|   -4.996493|    0.733643|    0.014695|           5|   -0.684270|  5.0000e+01|  5.0000e+01|  5.0000e+01|
|         437|  3.7281e-01|   -4.962891|    0.733518|    0.014690|           5|   -0.827876|  5.0000e+01|  5.0000e+01|  5.0000e+01|
|         438|  3.7265e-01|   -5.015029|    0.733395|    0.014685|           5|   -0.873910|  5.0000e+01|  5.0000e+01|  5.0000e+01|
|         439|  3.7306e-01|   -5.012241|    0.733271|    0.014680|           5|   -0.906350|  5.0000e+01|  5.0000e+01|  5.0000e+01|
|         440|  3.7309e-01|   -4.990028|    0.733151|    0.014676|           5|   -0.694195|  5.0000e+01|  5.0000e+01|  5.0000e+01|
|         441|  3.7297e-01|   -4.943516|    0.733031|    0.014671|           5|   -0.866007|  5.0000e+01|  5.0000e+01|  5.0000e+01|
|         442|  3.7282e-01|   -5.009311|    0.732914|    0.014666|           5|   -0.835488|  5.0000e+01|  5.0000e+01|  5.0000e+01|
|         443|  3.7268e-01|   -5.040306|    0.732796|    0.014661|           5|   -0.899967|  5.0000e+01|  5.0000e+01|  5.0000e+01|
|         444|  3.7332e-01|   -5.043207|    0.732681|    0.014656|           5|   -0.839544|  5.0000e+01|  5.0000e+01|  5.0000e+01|
|         445|  3.7319e-01|   -5.041215|    0.732570|    0.014651|           5|   -0.721094|  5.0000e+01|  5.0000e+01|  5.0000e+01|
|         446|  3.7306e-01|   -5.045815|    0.732456|    0.014646|           5|   -0.822524|  5.0000e+01|  5.0000e+01|  5.0000e+01|
|         447|  3.7302e-01|   -5.042270|    0.732354|    0.014641|           5|   -0.635331|  5.0000e+01|  5.0000e+01|  5.0000e+01|
|         448|  3.7348e-01|   -5.029474|    0.732246|    0.014636|           5|   -0.701194|  5.0000e+01|  5.0000e+01|  5.0000e+01|
|         449|  3.7335e-01|   -5.005033|    0.732140|    0.014630|           5|   -0.685203|  5.0000e+01|  5.0000e+01|  5.0000e+01|
|         450|  3.7323e-01|   -5.016972|    0.732032|    0.014624|           5|   -0.721599|  5.0000e+01|  5.0000e+01|  5.0000e+01|
|         451|  3.7310e-01|   -5.004739|    0.731924|    0.014617|           5|   -0.793132|  5.0000e+01|  5.0000e+01|  5.0000e+01|
|         452|  3.7297e-01|   -5.018730|    0.731822|    0.014611|           5|   -0.760156|  5.0000e+01|  5.0000e+01|  5.0000e+01|
|         453|  3.7354e-01|   -4.998437|    0.731723|    0.014604|           5|   -0.638541|  5.0000e+01|  5.0000e+01|  5.0000e+01|
|         454|  3.7337e-01|   -5.013165|    0.731619|    0.014597|           5|   -0.821000|  5.0000e+01|  5.0000e+01|  5.0000e+01|
|         455|  3.7322e-01|   -5.035289|    0.731520|    0.014590|           5|   -0.756897|  5.0000e+01|  5.0000e+01|  5.0000e+01|
|         456|  3.7310e-01|   -5.025183|    0.731416|    0.014582|           5|   -0.770028|  5.0000e+01|  5.0000e+01|  5.0000e+01|
|         457|  3.7300e-01|   -5.022599|    0.731310|    0.014574|           5|   -0.741751|  5.0000e+01|  5.0000e+01|  5.0000e+01|
|         458|  3.7287e-01|   -5.052317|    0.731220|    0.014567|           5|   -0.464187|  5.0000e+01|  5.0000e+01|  5.0000e+01|
|         459|  3.7334e-01|   -5.028609|    0.731105|    0.014558|           5|   -0.634515|  5.0000e+01|  5.0000e+01|  5.0000e+01|
|         460|  3.7321e-01|   -5.062932|    0.730998|    0.014549|           5|   -0.591952|  5.0000e+01|  5.0000e+01|  5.0000e+01|
|         461|  3.7308e-01|   -5.073749|    0.730892|    0.014541|           5|   -0.727988|  5.0000e+01|  5.0000e+01|  5.0000e+01|
|         462|  3.7295e-01|   -5.083283|    0.730787|    0.014532|           5|   -0.681846|  5.0000e+01|  5.0000e+01|  5.0000e+01|
|         463|  3.7287e-01|   -5.072094|    0.730680|    0.014524|           5|   -0.696256|  5.0000e+01|  5.0000e+01|  5.0000e+01|
|         464|  3.7337e-01|   -5.048433|    0.730575|    0.014516|           5|   -0.875691|  5.0000e+01|  5.0000e+01|  5.0000e+01|
|         465|  3.7325e-01|   -5.018759|    0.730466|    0.014508|           5|   -0.830208|  5.0000e+01|  5.0000e+01|  5.0000e+01|
|         466|  3.7312e-01|   -5.091351|    0.730355|    0.014500|           5|   -0.783761|  5.0000e+01|  5.0000e+01|  5.0000e+01|
|         467|  3.7299e-01|   -5.096161|    0.730240|    0.014492|           5|   -0.846238|  5.0000e+01|  5.0000e+01|  5.0000e+01|
|         468|  3.7286e-01|   -5.084684|    0.730131|    0.014484|           5|   -0.770726|  5.0000e+01|  5.0000e+01|  5.0000e+01|
|         469|  3.7321e-01|   -5.075928|    0.730014|    0.014477|           5|   -0.619187|  5.0000e+01|  5.0000e+01|  5.0000e+01|
|         470|  3.7330e-01|   -5.057237|    0.729902|    0.014470|           5|   -0.735355|  5.0000e+01|  5.0000e+01|  5.0000e+01|
|         471|  3.7319e-01|   -5.086744|    0.729797|    0.014465|           5|   -0.572236|  5.0000e+01|  5.0000e+01|  5.0000e+01|
|         472|  3.7305e-01|   -5.071490|    0.729686|    0.014459|           5|   -0.780477|  5.0000e+01|  5.0000e+01|  5.0000e+01|
|         473|  3.7295e-01|   -5.105550|    0.729573|    0.014454|           5|   -0.788248|  5.0000e+01|  5.0000e+01|  5.0000e+01|
|         474|  3.7285e-01|   -5.125674|    0.729456|    0.014449|           5|   -0.753592|  5.0000e+01|  5.0000e+01|  5.0000e+01|
|         475|  3.7275e-01|   -5.102314|    0.729340|    0.014445|           5|   -0.683389|  5.0000e+01|  5.0000e+01|  5.0000e+01|
|         476|  3.7330e-01|   -5.112707|    0.729220|    0.014441|           5|   -0.616589|  5.0000e+01|  5.0000e+01|  5.0000e+01|
|         477|  3.7315e-01|   -5.090233|    0.729107|    0.014438|           5|   -0.706962|  5.0000e+01|  5.0000e+01|  5.0000e+01|
|         478|  3.7304e-01|   -5.083492|    0.728994|    0.014435|           5|   -0.742839|  5.0000e+01|  5.0000e+01|  5.0000e+01|
|         479|  3.7290e-01|   -5.119362|    0.728883|    0.014433|           5|   -0.710027|  5.0000e+01|  5.0000e+01|  5.0000e+01|
|         480|  3.7278e-01|   -5.111531|    0.728773|    0.014432|           5|   -0.671181|  5.0000e+01|  5.0000e+01|  5.0000e+01|
|         481|  3.7310e-01|   -5.116875|    0.728667|    0.014430|           5|   -0.587257|  5.0000e+01|  5.0000e+01|  5.0000e+01|
|         482|  3.7327e-01|   -5.122570|    0.728545|    0.014429|           5|   -0.750318|  5.0000e+01|  5.0000e+01|  5.0000e+01|
|         483|  3.7314e-01|   -5.118640|    0.728426|    0.014428|           5|   -0.740838|  5.0000e+01|  5.0000e+01|  5.0000e+01|
|         484|  3.7302e-01|   -5.120392|    0.728329|    0.014427|           5|   -0.433761|  5.0000e+01|  5.0000e+01|  5.0000e+01|
|         485|  3.7341e-01|   -5.124932|    0.728218|    0.014427|           5|   -0.403419|  5.0000e+01|  5.0000e+01|  5.0000e+01|
|         486|  3.7345e-01|   -5.102777|    0.728102|    0.014426|           5|   -0.468583|  5.0000e+01|  5.0000e+01|  5.0000e+01|
|         487|  3.7335e-01|   -5.111194|    0.727992|    0.014426|           5|   -0.415706|  5.0000e+01|  5.0000e+01|  5.0000e+01|
|         488|  3.7323e-01|   -4.975935|    0.727876|    0.014425|           5|   -0.999747|  5.0000e+01|  5.0000e+01|  5.0000e+01|
|         489|  3.7311e-01|   -5.175495|    0.727772|    0.014425|           5|   -0.560316|  5.0000e+01|  5.0000e+01|  5.0000e+01|
|         490|  3.7300e-01|   -5.168944|    0.727662|    0.014424|           5|   -0.623813|  5.0000e+01|  5.0000e+01|  5.0000e+01|
|         491|  3.7289e-01|   -5.172343|    0.727549|    0.014423|           5|   -0.635220|  5.0000e+01|  5.0000e+01|  5.0000e+01|
|         492|  3.7345e-01|   -5.132298|    0.727445|    0.014422|           5|   -0.606085|  5.0000e+01|  5.0000e+01|  5.0000e+01|
|         493|  3.7334e-01|   -5.159727|    0.727344|    0.014421|           5|   -0.457814|  5.0000e+01|  5.0000e+01|  5.0000e+01|
|         494|  3.7324e-01|   -5.146857|    0.727232|    0.014419|           5|   -0.613521|  5.0000e+01|  5.0000e+01|  5.0000e+01|
|         495|  3.7315e-01|   -5.111433|    0.727115|    0.014417|           5|   -0.847672|  5.0000e+01|  5.0000e+01|  5.0000e+01|
|         496|  3.7301e-01|   -5.160711|    0.727007|    0.014415|           5|   -0.781815|  5.0000e+01|  5.0000e+01|  5.0000e+01|
|         497|  3.7357e-01|   -5.156810|    0.726904|    0.014412|           5|   -0.644132|  5.0000e+01|  5.0000e+01|  5.0000e+01|
|         498|  3.7344e-01|   -5.135813|    0.726792|    0.014409|           5|   -0.806698|  5.0000e+01|  5.0000e+01|  5.0000e+01|
|         499|  3.7332e-01|   -5.129715|    0.726686|    0.014405|           5|   -0.719945|  5.0000e+01|  5.0000e+01|  5.0000e+01|
|         500|  3.7323e-01|   -5.139189|    0.726580|    0.014401|           5|   -0.659567|  5.0000e+01|  5.0000e+01|  5.0000e+01|
|         501|  3.7312e-01|   -5.118311|    0.726480|    0.014396|           5|   -0.580730|  5.0000e+01|  5.0000e+01|  5.0000e+01|
|         502|  3.7354e-01|   -5.108829|    0.726372|    0.014391|           5|   -0.752275|  5.0000e+01|  5.0000e+01|  5.0000e+01|
|         503|  3.7358e-01|   -5.112164|    0.726277|    0.014385|           5|   -0.734764|  5.0000e+01|  5.0000e+01|  5.0000e+01|
|         504|  3.7345e-01|   -5.137556|    0.726176|    0.014380|           5|   -0.839454|  5.0000e+01|  5.0000e+01|  5.0000e+01|
|         505|  3.7334e-01|   -5.166937|    0.726081|    0.014373|           5|   -0.600012|  5.0000e+01|  5.0000e+01|  5.0000e+01|
|         506|  3.7331e-01|   -5.181447|    0.725988|    0.014367|           5|   -0.598944|  5.0000e+01|  5.0000e+01|  5.0000e+01|
[...]
|        1591|  3.8580e-01|   -6.736865|    0.699509|    0.013524|           5|   -0.425643|  5.0000e+01|  5.0000e+01|  5.0000e+01|
|        1592|  3.8576e-01|   -6.738490|    0.699506|    0.013524|           5|   -0.424809|  5.0000e+01|  5.0000e+01|  5.0000e+01|
|        1593|  3.8572e-01|   -6.740178|    0.699503|    0.013524|           5|   -0.422689|  5.0000e+01|  5.0000e+01|  5.0000e+01|
|        1594|  3.8569e-01|   -6.741707|    0.699501|    0.013524|           5|   -0.420432|  5.0000e+01|  5.0000e+01|  5.0000e+01|
|        1595|  3.8580e-01|   -6.743159|    0.699498|    0.013524|           5|   -0.417226|  5.0000e+01|  5.0000e+01|  5.0000e+01|
|        1596|  3.8576e-01|   -6.745385|    0.699495|    0.013524|           5|   -0.430718|  5.0000e+01|  5.0000e+01|  5.0000e+01|
|        1597|  3.8572e-01|   -6.749230|    0.699493|    0.013524|           5|   -0.424466|  5.0000e+01|  5.0000e+01|  5.0000e+01|
|        1598|  3.8568e-01|   -6.749404|    0.699490|    0.013524|           5|   -0.425337|  5.0000e+01|  5.0000e+01|  5.0000e+01|
|        1599|  3.8564e-01|   -6.750440|    0.699487|    0.013524|           5|   -0.422810|  5.0000e+01|  5.0000e+01|  5.0000e+01|
|        1600|  3.8580e-01|   -6.752625|    0.699485|    0.013524|           5|   -0.422236|  5.0000e+01|  5.0000e+01|  5.0000e+01|
|        1601|  3.8576e-01|   -6.756192|    0.699482|    0.013524|           5|   -0.406576|  5.0000e+01|  5.0000e+01|  5.0000e+01|
|        1602|  3.8572e-01|   -6.754336|    0.699479|    0.013524|           5|   -0.411252|  5.0000e+01|  5.0000e+01|  5.0000e+01|
|        1603|  3.8568e-01|   -6.756974|    0.699477|    0.013524|           5|   -0.390744|  5.0000e+01|  5.0000e+01|  5.0000e+01|
|        1604|  3.8564e-01|   -6.755908|    0.699474|    0.013524|           5|   -0.389906|  5.0000e+01|  5.0000e+01|  5.0000e+01|
|        1605|  3.8560e-01|   -6.756708|    0.699472|    0.013524|           5|   -0.382102|  5.0000e+01|  5.0000e+01|  5.0000e+01|
|        1606|  3.8573e-01|   -6.756908|    0.699469|    0.013524|           5|   -0.394522|  5.0000e+01|  5.0000e+01|  5.0000e+01|
|        1607|  3.8568e-01|   -6.760778|    0.699467|    0.013524|           5|   -0.406479|  5.0000e+01|  5.0000e+01|  5.0000e+01|
|        1608|  3.8565e-01|   -6.762986|    0.699464|    0.013524|           5|   -0.407152|  5.0000e+01|  5.0000e+01|  5.0000e+01|
|        1609|  3.8561e-01|   -6.765272|    0.699462|    0.013524|           5|   -0.406352|  5.0000e+01|  5.0000e+01|  5.0000e+01|
|        1610|  3.8557e-01|   -6.767065|    0.699459|    0.013524|           5|   -0.404518|  5.0000e+01|  5.0000e+01|  5.0000e+01|
|        1611|  3.8569e-01|   -6.768413|    0.699457|    0.013523|           5|   -0.403976|  5.0000e+01|  5.0000e+01|  5.0000e+01|
|        1612|  3.8565e-01|   -6.769776|    0.699454|    0.013523|           5|   -0.403341|  5.0000e+01|  5.0000e+01|  5.0000e+01|
|        1613|  3.8561e-01|   -6.771067|    0.699452|    0.013523|           5|   -0.402939|  5.0000e+01|  5.0000e+01|  5.0000e+01|
|        1614|  3.8557e-01|   -6.772343|    0.699450|    0.013523|           5|   -0.412633|  5.0000e+01|  5.0000e+01|  5.0000e+01|
|        1615|  3.8553e-01|   -6.779255|    0.699447|    0.013523|           5|   -0.404377|  5.0000e+01|  5.0000e+01|  5.0000e+01|
|        1616|  3.8556e-01|   -6.781418|    0.699445|    0.013523|           5|   -0.404734|  5.0000e+01|  5.0000e+01|  5.0000e+01|
|        1617|  3.8561e-01|   -6.783318|    0.699443|    0.013523|           5|   -0.380994|  5.0000e+01|  5.0000e+01|  5.0000e+01|
|        1618|  3.8558e-01|   -6.785442|    0.699440|    0.013523|           5|   -0.373432|  5.0000e+01|  5.0000e+01|  5.0000e+01|
|        1619|  3.8554e-01|   -6.786422|    0.699438|    0.013523|           5|   -0.374243|  5.0000e+01|  5.0000e+01|  5.0000e+01|
|        1620|  3.8550e-01|   -6.788095|    0.699436|    0.013523|           5|   -0.381373|  5.0000e+01|  5.0000e+01|  5.0000e+01|
|        1621|  3.8546e-01|   -6.790693|    0.699434|    0.013523|           5|   -0.384033|  5.0000e+01|  5.0000e+01|  5.0000e+01|
|        1622|  3.8558e-01|   -6.792743|    0.699431|    0.013523|           5|   -0.383986|  5.0000e+01|  5.0000e+01|  5.0000e+01|
|        1623|  3.8557e-01|   -6.793974|    0.699429|    0.013523|           5|   -0.383049|  5.0000e+01|  5.0000e+01|  5.0000e+01|
|        1624|  3.8553e-01|   -6.795246|    0.699427|    0.013523|           5|   -0.380403|  5.0000e+01|  5.0000e+01|  5.0000e+01|
|        1625|  3.8549e-01|   -6.791291|    0.699425|    0.013523|           5|   -0.404818|  5.0000e+01|  5.0000e+01|  5.0000e+01|
|        1626|  3.8546e-01|   -6.805718|    0.699423|    0.013523|           5|   -0.333246|  5.0000e+01|  5.0000e+01|  5.0000e+01|
|        1627|  3.8542e-01|   -6.786640|    0.699420|    0.013523|           5|   -0.391944|  5.0000e+01|  5.0000e+01|  5.0000e+01|
|        1628|  3.8561e-01|   -6.795608|    0.699418|    0.013523|           5|   -0.344837|  5.0000e+01|  5.0000e+01|  5.0000e+01|
|        1629|  3.8556e-01|   -6.791818|    0.699416|    0.013523|           5|   -0.358538|  5.0000e+01|  5.0000e+01|  5.0000e+01|
|        1630|  3.8552e-01|   -6.794871|    0.699414|    0.013523|           5|   -0.353791|  5.0000e+01|  5.0000e+01|  5.0000e+01|
|        1631|  3.8548e-01|   -6.797840|    0.699412|    0.013523|           5|   -0.368387|  5.0000e+01|  5.0000e+01|  5.0000e+01|
|        1632|  3.8544e-01|   -6.799924|    0.699410|    0.013523|           5|   -0.385839|  5.0000e+01|  5.0000e+01|  5.0000e+01|
|        1633|  3.8561e-01|   -6.809308|    0.699408|    0.013523|           5|   -0.377228|  5.0000e+01|  5.0000e+01|  5.0000e+01|
|        1634|  3.8565e-01|   -6.810626|    0.699406|    0.013523|           5|   -0.386476|  5.0000e+01|  5.0000e+01|  5.0000e+01|
|        1635|  3.8562e-01|   -6.815442|    0.699404|    0.013523|           5|   -0.381337|  5.0000e+01|  5.0000e+01|  5.0000e+01|
|        1636|  3.8558e-01|   -6.816219|    0.699401|    0.013523|           5|   -0.374261|  5.0000e+01|  5.0000e+01|  5.0000e+01|
|        1637|  3.8554e-01|   -6.814979|    0.699399|    0.013523|           5|   -0.375335|  5.0000e+01|  5.0000e+01|  5.0000e+01|
|        1638|  3.8572e-01|   -6.811606|    0.699397|    0.013523|           5|   -0.389786|  5.0000e+01|  5.0000e+01|  5.0000e+01|
|        1639|  3.8568e-01|   -6.819249|    0.699395|    0.013522|           5|   -0.382896|  5.0000e+01|  5.0000e+01|  5.0000e+01|
|        1640|  3.8564e-01|   -6.824621|    0.699393|    0.013522|           5|   -0.381632|  5.0000e+01|  5.0000e+01|  5.0000e+01|
|        1641|  3.8560e-01|   -6.827209|    0.699391|    0.013522|           5|   -0.380899|  5.0000e+01|  5.0000e+01|  5.0000e+01|
|        1642|  3.8556e-01|   -6.829279|    0.699389|    0.013522|           5|   -0.380113|  5.0000e+01|  5.0000e+01|  5.0000e+01|
|        1643|  3.8577e-01|   -6.830597|    0.699387|    0.013522|           5|   -0.381434|  5.0000e+01|  5.0000e+01|  5.0000e+01|
|        1644|  3.8572e-01|   -6.831880|    0.699385|    0.013522|           5|   -0.380282|  5.0000e+01|  5.0000e+01|  5.0000e+01|
|        1645|  3.8568e-01|   -6.833013|    0.699383|    0.013522|           5|   -0.378934|  5.0000e+01|  5.0000e+01|  5.0000e+01|
|        1646|  3.8564e-01|   -6.834150|    0.699381|    0.013522|           5|   -0.378212|  5.0000e+01|  5.0000e+01|  5.0000e+01|
|        1647|  3.8560e-01|   -6.835525|    0.699379|    0.013522|           5|   -0.376920|  5.0000e+01|  5.0000e+01|  5.0000e+01|
|        1648|  3.8581e-01|   -6.836680|    0.699377|    0.013522|           5|   -0.377160|  5.0000e+01|  5.0000e+01|  5.0000e+01|
|        1649|  3.8577e-01|   -6.838436|    0.699376|    0.013522|           5|   -0.379431|  5.0000e+01|  5.0000e+01|  5.0000e+01|
|        1650|  3.8573e-01|   -6.840568|    0.699374|    0.013522|           5|   -0.379243|  5.0000e+01|  5.0000e+01|  5.0000e+01|
|        1651|  3.8569e-01|   -6.842366|    0.699372|    0.013522|           5|   -0.378466|  5.0000e+01|  5.0000e+01|  5.0000e+01|
|        1652|  3.8581e-01|   -6.843798|    0.699370|    0.013522|           5|   -0.377482|  5.0000e+01|  5.0000e+01|  5.0000e+01|
|        1653|  3.8577e-01|   -6.830235|    0.699368|    0.013522|           5|   -0.400982|  5.0000e+01|  5.0000e+01|  5.0000e+01|
|        1654|  3.8573e-01|   -6.846001|    0.699366|    0.013522|           5|   -0.367425|  5.0000e+01|  5.0000e+01|  5.0000e+01|
|        1655|  3.8569e-01|   -6.845368|    0.699364|    0.013522|           5|   -0.368296|  5.0000e+01|  5.0000e+01|  5.0000e+01|
|        1656|  3.8583e-01|   -6.847932|    0.699362|    0.013522|           5|   -0.363929|  5.0000e+01|  5.0000e+01|  5.0000e+01|
|        1657|  3.8582e-01|   -6.847757|    0.699360|    0.013522|           5|   -0.365082|  5.0000e+01|  5.0000e+01|  5.0000e+01|
|        1658|  3.8578e-01|   -6.845261|    0.699359|    0.013522|           5|   -0.207510|  5.0000e+01|  5.0000e+01|  5.0000e+01|
|        1659|  3.8574e-01|   -6.835538|    0.699359|    0.013522|           5|   -0.127065|  5.0000e+01|  5.0000e+01|  5.0000e+01|
|        1660|  3.8570e-01|   -6.814957|    0.699358|    0.013522|           5|   -0.109003|  5.0000e+01|  5.0000e+01|  5.0000e+01|
|        1661|  3.8586e-01|   -6.796293|    0.699358|    0.013522|           5|   -0.106652|  5.0000e+01|  5.0000e+01|  5.0000e+01|
|        1662|  3.8581e-01|   -6.780812|    0.699358|    0.013522|           5|   -0.102798|  5.0000e+01|  5.0000e+01|  5.0000e+01|
|        1663|  3.8577e-01|   -6.779692|    0.699358|    0.013522|           5|   -0.105834|  5.0000e+01|  5.0000e+01|  5.0000e+01|
|        1664|  3.8573e-01|   -6.764543|    0.699358|    0.013522|           5|   -0.105242|  5.0000e+01|  5.0000e+01|  5.0000e+01|
|        1665|  3.8569e-01|   -6.772022|    0.699357|    0.013522|           5|   -0.107631|  5.0000e+01|  5.0000e+01|  5.0000e+01|
|        1666|  3.8587e-01|   -6.757693|    0.699358|    0.013522|           5|   -0.108358|  5.0000e+01|  5.0000e+01|  5.0000e+01|
|        1667|  3.8583e-01|   -6.769763|    0.699357|    0.013522|           5|   -0.109721|  5.0000e+01|  5.0000e+01|  5.0000e+01|
|        1668|  3.8579e-01|   -6.756763|    0.699357|    0.013522|           5|   -0.108251|  5.0000e+01|  5.0000e+01|  5.0000e+01|
|        1669|  3.8575e-01|   -6.768031|    0.699357|    0.013522|           5|   -0.109138|  5.0000e+01|  5.0000e+01|  5.0000e+01|
|        1670|  3.8588e-01|   -6.754984|    0.699357|    0.013522|           5|   -0.107195|  5.0000e+01|  5.0000e+01|  5.0000e+01|
|        1671|  3.8586e-01|   -6.745032|    0.699357|    0.013522|           5|   -0.110702|  5.0000e+01|  5.0000e+01|  5.0000e+01|
|        1672|  3.8582e-01|   -6.764780|    0.699357|    0.013522|           5|   -0.107824|  5.0000e+01|  5.0000e+01|  5.0000e+01|
|        1673|  3.8578e-01|   -6.751177|    0.699357|    0.013522|           5|   -0.106958|  5.0000e+01|  5.0000e+01|  5.0000e+01|
|        1674|  3.8587e-01|   -6.741897|    0.699357|    0.013522|           5|   -0.112927|  5.0000e+01|  5.0000e+01|  5.0000e+01|
|        1675|  3.8590e-01|   -6.763274|    0.699357|    0.013522|           5|   -0.109741|  5.0000e+01|  5.0000e+01|  5.0000e+01|
|        1676|  3.8586e-01|   -6.750441|    0.699356|    0.013522|           5|   -0.106395|  5.0000e+01|  5.0000e+01|  5.0000e+01|
|        1677|  3.8582e-01|   -6.741496|    0.699356|    0.013522|           5|   -0.106935|  5.0000e+01|  5.0000e+01|  5.0000e+01|
|        1678|  3.8578e-01|   -6.735182|    0.699357|    0.013522|           5|   -0.115209|  5.0000e+01|  5.0000e+01|  5.0000e+01|
|        1679|  3.8593e-01|   -6.761279|    0.699356|    0.013522|           5|   -0.109154|  5.0000e+01|  5.0000e+01|  5.0000e+01|
|        1680|  3.8589e-01|   -6.747700|    0.699356|    0.013522|           5|   -0.106545|  5.0000e+01|  5.0000e+01|  5.0000e+01|
|        1681|  3.8585e-01|   -6.739804|    0.699356|    0.013522|           5|   -0.106577|  5.0000e+01|  5.0000e+01|  5.0000e+01|
|        1682|  3.8581e-01|   -6.734715|    0.699356|    0.013522|           5|   -0.106847|  5.0000e+01|  5.0000e+01|  5.0000e+01|
|        1683|  3.8586e-01|   -6.730636|    0.699356|    0.013522|           5|   -0.106365|  5.0000e+01|  5.0000e+01|  5.0000e+01|
|        1684|  3.8594e-01|   -6.730847|    0.699356|    0.013522|           5|   -0.106658|  5.0000e+01|  5.0000e+01|  5.0000e+01|
|        1685|  3.8590e-01|   -6.727809|    0.699356|    0.013522|           5|   -0.118018|  5.0000e+01|  5.0000e+01|  5.0000e+01|
|        1686|  3.8586e-01|   -6.763544|    0.699356|    0.013522|           5|   -0.108107|  5.0000e+01|  5.0000e+01|  5.0000e+01|
|        1687|  3.8602e-01|   -6.750742|    0.699356|    0.013522|           5|   -0.106904|  5.0000e+01|  5.0000e+01|  5.0000e+01|
|        1688|  3.8598e-01|   -6.744989|    0.699356|    0.013522|           5|   -0.106522|  5.0000e+01|  5.0000e+01|  5.0000e+01|
|        1689|  3.8594e-01|   -6.742005|    0.699356|    0.013522|           5|   -0.106716|  5.0000e+01|  5.0000e+01|  5.0000e+01|
|        1690|  3.8590e-01|   -6.742807|    0.699356|    0.013522|           5|   -0.106168|  5.0000e+01|  5.0000e+01|  5.0000e+01|
|        1691|  3.8586e-01|   -6.743112|    0.699356|    0.013522|           5|   -0.106014|  5.0000e+01|  5.0000e+01|  5.0000e+01|
|        1692|  3.8587e-01|   -6.743665|    0.699356|    0.013522|           5|   -0.105890|  5.0000e+01|  5.0000e+01|  5.0000e+01|
|        1693|  3.8596e-01|   -6.743541|    0.699356|    0.013522|           5|   -0.105870|  5.0000e+01|  5.0000e+01|  5.0000e+01|
|        1694|  3.8591e-01|   -6.743103|    0.699356|    0.013522|           5|   -0.105879|  5.0000e+01|  5.0000e+01|  5.0000e+01|
|        1695|  3.8587e-01|   -6.742376|    0.699356|    0.013522|           5|   -0.105908|  5.0000e+01|  5.0000e+01|  5.0000e+01|
|        1696|  3.8583e-01|   -6.741369|    0.699356|    0.013522|           5|   -0.106056|  5.0000e+01|  5.0000e+01|  5.0000e+01|
|        1697|  3.8579e-01|   -6.740052|    0.699356|    0.013522|           5|   -0.106051|  5.0000e+01|  5.0000e+01|  5.0000e+01|
|        1698|  3.8591e-01|   -6.738063|    0.699356|    0.013522|           5|   -0.106055|  5.0000e+01|  5.0000e+01|  5.0000e+01|
|        1699|  3.8587e-01|   -6.735111|    0.699356|    0.013522|           5|   -0.106213|  5.0000e+01|  5.0000e+01|  5.0000e+01|
|        1700|  3.8583e-01|   -6.731026|    0.699356|    0.013522|           5|   -0.106527|  5.0000e+01|  5.0000e+01|  5.0000e+01|
|        1701|  3.8580e-01|   -6.725282|    0.699356|    0.013522|           5|   -0.108903|  5.0000e+01|  5.0000e+01|  5.0000e+01|
|        1702|  3.8576e-01|   -6.737160|    0.699356|    0.013522|           5|   -0.107384|  5.0000e+01|  5.0000e+01|  5.0000e+01|
|        1703|  3.8574e-01|   -6.732211|    0.699356|    0.013522|           5|   -0.106612|  5.0000e+01|  5.0000e+01|  5.0000e+01|
|        1704|  3.8582e-01|   -6.727333|    0.699356|    0.013522|           5|   -0.106848|  5.0000e+01|  5.0000e+01|  5.0000e+01|
|        1705|  3.8579e-01|   -6.721701|    0.699356|    0.013522|           5|   -0.107237|  5.0000e+01|  5.0000e+01|  5.0000e+01|
|        1706|  3.8575e-01|   -6.714876|    0.699356|    0.013522|           5|   -0.130489|  5.0000e+01|  5.0000e+01|  5.0000e+01|
|        1707|  3.8571e-01|   -6.767080|    0.699356|    0.013522|           5|   -0.115100|  5.0000e+01|  5.0000e+01|  5.0000e+01|
|        1708|  3.8571e-01|   -6.754115|    0.699356|    0.013522|           5|   -0.107211|  5.0000e+01|  5.0000e+01|  5.0000e+01|
|        1709|  3.8582e-01|   -6.746089|    0.699355|    0.013522|           5|   -0.106472|  5.0000e+01|  5.0000e+01|  5.0000e+01|
|        1710|  3.8577e-01|   -6.742334|    0.699355|    0.013522|           5|   -0.106356|  5.0000e+01|  5.0000e+01|  5.0000e+01|
|        1711|  3.8573e-01|   -6.739871|    0.699355|    0.013522|           5|   -0.106388|  5.0000e+01|  5.0000e+01|  5.0000e+01|
|        1712|  3.8568e-01|   -6.738676|    0.699355|    0.013522|           5|   -0.106436|  5.0000e+01|  5.0000e+01|  5.0000e+01|
|        1713|  3.8565e-01|   -6.737833|    0.699355|    0.013522|           5|   -0.106459|  5.0000e+01|  5.0000e+01|  5.0000e+01|
|        1714|  3.8561e-01|   -6.737481|    0.699355|    0.013522|           5|   -0.106494|  5.0000e+01|  5.0000e+01|  5.0000e+01|
|        1715|  3.8573e-01|   -6.737012|    0.699355|    0.013522|           5|   -0.106577|  5.0000e+01|  5.0000e+01|  5.0000e+01|
|        1716|  3.8568e-01|   -6.736997|    0.699355|    0.013522|           5|   -0.106690|  5.0000e+01|  5.0000e+01|  5.0000e+01|
|        1717|  3.8564e-01|   -6.737170|    0.699355|    0.013522|           5|   -0.106809|  5.0000e+01|  5.0000e+01|  5.0000e+01|
|        1718|  3.8560e-01|   -6.737636|    0.699355|    0.013522|           5|   -0.106869|  5.0000e+01|  5.0000e+01|  5.0000e+01|
|        1719|  3.8556e-01|   -6.738178|    0.699355|    0.013522|           5|   -0.106812|  5.0000e+01|  5.0000e+01|  5.0000e+01|
|        1720|  3.8552e-01|   -6.738526|    0.699355|    0.013522|           5|   -0.106745|  5.0000e+01|  5.0000e+01|  5.0000e+01|
|        1721|  3.8567e-01|   -6.738636|    0.699355|    0.013522|           5|   -0.106717|  5.0000e+01|  5.0000e+01|  5.0000e+01|
|        1722|  3.8563e-01|   -6.738686|    0.699355|    0.013522|           5|   -0.106712|  5.0000e+01|  5.0000e+01|  5.0000e+01|
|        1723|  3.8559e-01|   -6.738635|    0.699355|    0.013522|           5|   -0.106716|  5.0000e+01|  5.0000e+01|  5.0000e+01|
|        1724|  3.8564e-01|   -6.738535|    0.699355|    0.013522|           5|   -0.106725|  5.0000e+01|  5.0000e+01|  5.0000e+01|
|        1725|  3.8570e-01|   -6.738384|    0.699355|    0.013522|           5|   -0.106737|  5.0000e+01|  5.0000e+01|  5.0000e+01|
|        1726|  3.8565e-01|   -6.738242|    0.699355|    0.013522|           5|   -0.106751|  5.0000e+01|  5.0000e+01|  5.0000e+01|
|        1727|  3.8561e-01|   -6.738091|    0.699355|    0.013522|           5|   -0.106765|  5.0000e+01|  5.0000e+01|  5.0000e+01|

----------------------------- Solver Exit -------------------------------
All convergence criteria satisfied.
+-----------------------------------------------------------------------+
|      Convergence Field     |     Value    |   Criterion  |  Converged |
+-----------------------------------------------------------------------+
|                  Cauchy[CL]|   9.81913e-07|       < 1e-06|         Yes|
+-----------------------------------------------------------------------+
-------------------------------------------------------------------------
+-----------------------------------------------------------------------+
|        File Writing Summary       |              Filename             |
+-----------------------------------------------------------------------+
|SU2 binary restart                 |restart_flow.dat                   |

Writing the forces breakdown file (forces_breakdown.dat).
|Paraview                           |flow.vtu                           |

Writing the forces breakdown file (forces_breakdown.dat).
|Paraview surface                   |surface_flow.vtu                   |

Writing the forces breakdown file (forces_breakdown.dat).
+-----------------------------------------------------------------------+

--------------------------- Finalizing Solver ---------------------------
Deleted CNumerics container.
Deleted CIntegration container.
Deleted CSolver container.
Deleted CIteration container.
Deleted CInterface container.
Deleted CGeometry container.
Deleted CFreeFormDefBox class.
Deleted CSurfaceMovement class.
Deleted CVolumetricMovement class.
Deleted CConfig container.
Deleted nInst container.
Deleted COutput class.
-------------------------------------------------------------------------

------------------------- Exit Success (SU2_CFD) ------------------------

