
-------------------------------------------------------------------------
|    ___ _   _ ___                                                      |
|   / __| | | |_  )   Release 8.0.0 "Harrier"                           |
|   \__ \ |_| |/ /                                                      |
|   |___/\___//___|   Suite (Computational Fluid Dynamics Code)         |
|                                                                       |
-------------------------------------------------------------------------
| SU2 Project Website: https://su2code.github.io                        |
|                                                                       |
| The SU2 Project is maintained by the SU2 Foundation                   |
| (http://su2foundation.org)                                            |
-------------------------------------------------------------------------
| Copyright 2012-2023, SU2 Contributors                                 |
|                                                                       |
| SU2 is free software; you can redistribute it and/or                  |
| modify it under the terms of the GNU Lesser General Public            |
| License as published by the Free Software Foundation; either          |
| version 2.1 of the License, or (at your option) any later version.    |
|                                                                       |
| SU2 is distributed in the hope that it will be useful,                |
| but WITHOUT ANY WARRANTY; without even the implied warranty of        |
| MERCHANTABILITY or FITNESS FOR A PARTICULAR PURPOSE. See the GNU      |
| Lesser General Public License for more details.                       |
|                                                                       |
| You should have received a copy of the GNU Lesser General Public      |
| License along with SU2. If not, see <http://www.gnu.org/licenses/>.   |
-------------------------------------------------------------------------


Problem definition:

Compressible Euler equations.
Mach number: 0.729.
Angle of attack (AoA): 2 deg, and angle of sideslip (AoS): 0 deg.
Dimensional simulation.
The reference area is 1 m^2.
The reference length is 1 m.


Problem definition:

Inviscid flow: Computing density based on free-stream
temperature and pressure using the ideal gas law.
Force coefficients computed using free-stream values.
-- Input conditions:
Fluid Model: STANDARD_AIR 
Specific gas constant: 287.058 N.m/kg.K.
Specific gas constant (non-dim): 287.058
Specific Heat Ratio: 1.4000 
Free-stream static pressure: 101325 Pa.
Free-stream total pressure: 144296 Pa.
Free-stream temperature: 288.15 K.
Free-stream total temperature: 318.777 K.
Free-stream density: 1.22498 kg/m^3.
Free-stream velocity: (247.925, 8.65775) m/s. Magnitude: 248.077 m/s.
Free-stream total energy per unit mass: 237560 m^2/s^2.
-- Reference values:
Reference specific gas constant: 1 N.m/kg.K.
Reference pressure: 1 Pa.
Reference temperature: 1 K.
Reference density: 1 kg/m^3.
Reference velocity: 1 m/s.
Reference energy per unit mass: 1 m^2/s^2.
-- Resulting non-dimensional state:
Mach number (non-dim): 0.729
Specific gas constant (non-dim): 287.058
Free-stream temperature (non-dim): 288.15
Free-stream pressure (non-dim): 101325
Free-stream density (non-dim): 1.22498
Free-stream velocity (non-dim): (247.925, 8.65775). Magnitude: 248.077
Free-stream total energy per unit mass (non-dim): 237560


Forces breakdown:

Center of Pressure: X=0.145831Y+0.605115 m.

NOTE: Multiply forces by the non-dimensional factor: 37693.781527, and the reference factor: 1.000000
to obtain the dimensional force.

Total CL:       2.209501 | Pressure (  100%):    2.209501 | Friction (    0%):    0.000000 | Momentum (    0%):    0.000000
Total CD:       0.401415 | Pressure (   99%):    0.401415 | Friction (    0%):    0.000000 | Momentum (    0%):    0.000000
Total CL/CD:    5.504287 | Pressure (  100%):    5.504287 | Friction (    0%):    0.000000 | Momentum (    0%):    0.000000
Total CMz:      0.789125 | Pressure (   99%):    0.789125 | Friction (    0%):    0.000000 | Momentum (    0%):    0.000000
Total CFx:      0.324060 | Pressure (   99%):    0.324060 | Friction (    0%):    0.000000 | Momentum (    0%):    0.000000
Total CFy:      2.222165 | Pressure (  100%):    2.222165 | Friction (    0%):    0.000000 | Momentum (    0%):    0.000000


Surface name: Airfoil

Total CL    (   81%):    1.807038 | Pressure (  100%):    1.807038 | Friction (    0%):    0.000000 | Momentum (    0%):    0.000000
Total CD    (    0%):    0.002095 | Pressure (   99%):    0.002095 | Friction (    0%):    0.000000 | Momentum (    0%):    0.000000
Total CL/CD (15668%):  862.427796 | Pressure (  100%):  862.427796 | Friction (    0%):    0.000000 | Momentum (    0%):    0.000000
Total CMz   (   50%):    0.400725 | Pressure (   99%):    0.400725 | Friction (    0%):    0.000000 | Momentum (    0%):    0.000000
Total CFx   (  -18%):   -0.060971 | Pressure (  100%):   -0.060971 | Friction (    0%):    0.000000 | Momentum (    0%):    0.000000
Total CFy   (   81%):    1.806011 | Pressure (  100%):    1.806011 | Friction (    0%):    0.000000 | Momentum (    0%):    0.000000

Surface name: Flap

Total CL    (   21%):    0.480892 | Pressure (   99%):    0.480892 | Friction (    0%):    0.000000 | Momentum (    0%):    0.000000
Total CD    (   86%):    0.348888 | Pressure (   99%):    0.348888 | Friction (    0%):    0.000000 | Momentum (    0%):    0.000000
Total CL/CD (   25%):    1.378358 | Pressure (   99%):    1.378358 | Friction (    0%):    0.000000 | Momentum (    0%):    0.000000
Total CMz   (   46%):    0.363562 | Pressure (   99%):    0.363562 | Friction (    0%):    0.000000 | Momentum (    0%):    0.000000
Total CFx   (  102%):    0.331892 | Pressure (   99%):    0.331892 | Friction (    0%):    0.000000 | Momentum (    0%):    0.000000
Total CFy   (   22%):    0.492775 | Pressure (   99%):    0.492775 | Friction (    0%):    0.000000 | Momentum (    0%):    0.000000

Surface name: Slat

Total CL    (   -3%):   -0.078429 | Pressure (  100%):   -0.078429 | Friction (    0%):    0.000000 | Momentum (    0%):    0.000000
Total CD    (   12%):    0.050432 | Pressure (   99%):    0.050432 | Friction (    0%):    0.000000 | Momentum (    0%):    0.000000
Total CL/CD (  -28%):   -1.555161 | Pressure (  100%):   -1.555161 | Friction (    0%):    0.000000 | Momentum (    0%):    0.000000
Total CMz   (    3%):    0.024838 | Pressure (   99%):    0.024838 | Friction (    0%):    0.000000 | Momentum (    0%):    0.000000
Total CFx   (   16%):    0.053138 | Pressure (   99%):    0.053138 | Friction (    0%):    0.000000 | Momentum (    0%):    0.000000
Total CFy   (   -3%):   -0.076621 | Pressure (  100%):   -0.076621 | Friction (    0%):    0.000000 | Momentum (    0%):    0.000000

