
-------------------------------------------------------------------------
|    ___ _   _ ___                                                      |
|   / __| | | |_  )   Release 8.0.0 "Harrier"                           |
|   \__ \ |_| |/ /                                                      |
|   |___/\___//___|   Suite (Computational Fluid Dynamics Code)         |
|                                                                       |
-------------------------------------------------------------------------
| SU2 Project Website: https://su2code.github.io                        |
|                                                                       |
| The SU2 Project is maintained by the SU2 Foundation                   |
| (http://su2foundation.org)                                            |
-------------------------------------------------------------------------
| Copyright 2012-2023, SU2 Contributors                                 |
|                                                                       |
| SU2 is free software; you can redistribute it and/or                  |
| modify it under the terms of the GNU Lesser General Public            |
| License as published by the Free Software Foundation; either          |
| version 2.1 of the License, or (at your option) any later version.    |
|                                                                       |
| SU2 is distributed in the hope that it will be useful,                |
| but WITHOUT ANY WARRANTY; without even the implied warranty of        |
| MERCHANTABILITY or FITNESS FOR A PARTICULAR PURPOSE. See the GNU      |
| Lesser General Public License for more details.                       |
|                                                                       |
| You should have received a copy of the GNU Lesser General Public      |
| License along with SU2. If not, see <http://www.gnu.org/licenses/>.   |
-------------------------------------------------------------------------

Parsing config file for zone 0

----------------- Physical Case Definition ( Zone 0 ) -------------------
Compressible Euler equations.
Mach number: 0.729.
Angle of attack (AoA): 2 deg, and angle of sideslip (AoS): 0 deg.
Reading and writing binary SU2 native restart files.
Read flow solution from: restart_flow.dat.
Dimensional simulation.
The reference area is 1 m^2.
The semi-span will be computed using the max y(3D) value.
The reference length is 1 m.
Surface(s) where the force coefficients are evaluated and 
their reference origin for moment computation: 
   - Airfoil (0.25, 0, 0).
   - Flap (0.25, 0, 0).
   - Slat (0.25, 0, 0) m.
Surface(s) plotted in the output file: Airfoil, Flap, Slat.
Input mesh file name: Mesh.su2

--------------- Space Numerical Integration ( Zone 0 ) ------------------
Roe (with entropy fix = 0.001) solver for the flow inviscid terms.
Standard Roe without low-dissipation function.
Second order integration in space, with slope limiter.
Venkatakrishnan slope-limiting method, with constant: 0.03.
The reference element size is: 1. 
Gradient for upwind reconstruction: inverse-distance weighted Least-Squares.
Gradient for viscous and source terms: inverse-distance weighted Least-Squares.

--------------- Time Numerical Integration  ( Zone 0 ) ------------------
Local time stepping (steady state simulation).
Euler implicit method for the flow equations.
FGMRES is used for solving the linear system.
Using a ILU(0) preconditioning.
Convergence criteria of the linear solver: 1e-06.
Max number of linear iterations: 10.
CFL adaptation. Factor down: 0.5, factor up: 1.1,
                lower limit: 1, upper limit: 1000,
                acceptable linear residual: 0.001.
Courant-Friedrichs-Lewy number:        2

------------------ Convergence Criteria  ( Zone 0 ) ---------------------
Maximum number of solver subiterations: 5000.
Begin convergence monitoring at iteration 10.
Residual minimum value: 1e-14.
Cauchy series min. value: 1e-06.
Number of Cauchy elements: 100.
Begin windowed time average at iteration 0.

-------------------- Output Information ( Zone 0 ) ----------------------
File writing frequency: 
+------------------------------------+
|                     File| Frequency|
+------------------------------------+
|                  RESTART|       500|
|                 PARAVIEW|       500|
|         SURFACE_PARAVIEW|       500|
+------------------------------------+
Writing the convergence history file every 1 inner iterations.
Writing the screen convergence history every 1 inner iterations.
The tabular file format is CSV (.csv).
Convergence history file name: historySecond.
Forces breakdown file name: forces_breakdown.dat.
Surface file name: surface_flow.
Volume file name: flow.
Restart file name: restart_flow.dat.

------------- Config File Boundary Information ( Zone 0 ) ---------------
+-----------------------------------------------------------------------+
|                        Marker Type|                        Marker Name|
+-----------------------------------------------------------------------+
|                         Euler wall|                            Airfoil|
|                                   |                                0.0|
|                                   |                               Flap|
|                                   |                                0.0|
|                                   |                               Slat|
|                                   |                                0.0|
+-----------------------------------------------------------------------+
|                          Far-field|                           Farfield|
+-----------------------------------------------------------------------+

-------------------- Output Preprocessing ( Zone 0 ) --------------------

WARNING: SURFACE_PRESSURE_DROP can only be computed for at least 2 surfaces (outlet, inlet, ...)

Screen output fields: INNER_ITER, WALL_TIME, RMS_DENSITY, LIFT, DRAG, MIN_CFL, MAX_CFL, AVG_CFL
  Info: Ignoring the following history output groups:
  RESIDUALS, CFL
History output group(s): INNER_ITER, LIFT, DRAG
Convergence field(s): LIFT
Warning: No (valid) fields chosen for time convergence monitoring. Time convergence monitoring inactive.
  Info: Ignoring the following volume output fields/groups:
  RESIDUALS, WALL_DISTANCE
Volume output fields: SOLUTION, PRIMITIVE, GRADIENTS, HESSIANS, EIGENVALUES, COORDINATES

------------------- Geometry Preprocessing ( Zone 0 ) -------------------
Two dimensional problem.
46888 grid points before partitioning.
49810 volume elements before partitioning.
4 surface markers.
389 boundary elements in index 0 (Marker = Airfoil).
158 boundary elements in index 1 (Marker = Farfield).
219 boundary elements in index 2 (Marker = Flap).
297 boundary elements in index 3 (Marker = Slat).
Executing the partitioning functions.
Building the graph adjacency structure.
Calling ParMETIS... graph partitioning complete (634 edge cuts).
Distributing ParMETIS coloring.
Rebalancing vertices.
Rebalancing volume element connectivity.
Rebalancing markers and surface elements.
48123 vertices including ghost points. 
50441 interior elements including halo cells. 
6944 triangles.
43497 quadrilaterals.
Establishing MPI communication patterns.
Setting point connectivity.
Renumbering points (Reverse Cuthill McKee Ordering).
Recomputing point connectivity.
Setting element connectivity.
Checking the numerical grid orientation.
All volume elements are correctly orientend.
All surface elements are correctly orientend.
Identifying edges and vertices.
Setting the control volume structure.
Area of the computational grid: 31416.8.
Searching for the closest normal neighbors to the surfaces.
Storing a mapping from global to local point index.
Compute the surface curvature.
Max K: 19734.5. Mean K: 115.243. Standard deviation K: 1182.64.
Checking for periodicity.
Computing mesh quality statistics for the dual control volumes.
+--------------------------------------------------------------+
|           Mesh Quality Metric|        Minimum|        Maximum|
+--------------------------------------------------------------+
|    Orthogonality Angle (deg.)|        71.5453|             90|
|     CV Face Area Aspect Ratio|        1.00432|         5.9883|
|           CV Sub-Volume Ratio|        1.00255|        10.0816|
+--------------------------------------------------------------+
Finding max control volume width.
Communicating number of neighbors.
Wetted area = 2.56809 m.
Area projection in the x-plane = 0.364299 m, y-plane = 1.14781 m.
Max. coordinate in the x-direction = 1.06769 m, y-direction = 0.060231 m.
Min. coordinate in the x-direction = -0.0559859 m, y-direction = -0.147724 m.
Checking if Euler & Symmetry markers are straight/plane:
Boundary marker Airfoil is NOT a single straight.
Boundary marker 0.0 is a single straight.
Boundary marker Flap is NOT a single straight.
Boundary marker 0.0 is a single straight.
Boundary marker Slat is NOT a single straight.
Boundary marker 0.0 is a single straight.
Computing wall distances.

-------------------- Solver Preprocessing ( Zone 0 ) --------------------
Inviscid flow: Computing density based on free-stream
temperature and pressure using the ideal gas law.
Force coefficients computed using free-stream values.

-- Models:
+------------------------------------------------------------------------------+
|          Viscosity Model|        Conductivity Model|              Fluid Model|
+------------------------------------------------------------------------------+
|                        -|                         -|             STANDARD_AIR|
+------------------------------------------------------------------------------+
-- Fluid properties:
+------------------------------------------------------------------------------+
|                  Name|    Dim. value|    Ref. value|      Unit|Non-dim. value|
+------------------------------------------------------------------------------+
|          Gas Constant|       287.058|             1|  N.m/kg.K|       287.058|
|      Spec. Heat Ratio|             -|             -|         -|           1.4|
+------------------------------------------------------------------------------+
-- Initial and free-stream conditions:
+------------------------------------------------------------------------------+
|                  Name|    Dim. value|    Ref. value|      Unit|Non-dim. value|
+------------------------------------------------------------------------------+
|       Static Pressure|        101325|             1|        Pa|        101325|
|               Density|       1.22498|             1|    kg/m^3|       1.22498|
|           Temperature|        288.15|             1|         K|        288.15|
|          Total Energy|        237560|             1|   m^2/s^2|        237560|
|            Velocity-X|       247.925|             1|       m/s|       247.925|
|            Velocity-Y|       8.65775|             1|       m/s|       8.65775|
|    Velocity Magnitude|       248.077|             1|       m/s|       248.077|
+------------------------------------------------------------------------------+
|           Mach Number|             -|             -|         -|         0.729|
+------------------------------------------------------------------------------+
Initialize Jacobian structure (Euler). MG level: 0.

------------------- Numerics Preprocessing ( Zone 0 ) -------------------

----------------- Integration Preprocessing ( Zone 0 ) ------------------

------------------- Iteration Preprocessing ( Zone 0 ) ------------------
Euler/Navier-Stokes/RANS fluid iteration.

------------------------------ Begin Solver -----------------------------

Simulation Run using the Single-zone Driver
WARNING: SU2 was not compiled for an AVX-capable architecture. Performance could be better,
         see https://su2code.github.io/docs_v7/Build-SU2-Linux-MacOS/#compiler-optimizations
+-------------------------------------------------------------------------------------------------------+
|  Inner_Iter|   Time(sec)|    rms[Rho]|          CL|          CD|     Min CFL|     Max CFL|     Avg CFL|
+-------------------------------------------------------------------------------------------------------+
|           0|  7.4326e-02|   -2.297030|    2.043664|    0.247632|  2.2000e+00|  2.2000e+00|  2.2000e+00|
|           1|  1.4444e-01|   -2.303627|    2.043366|    0.247339|  2.4200e+00|  2.4200e+00|  2.4200e+00|
|           2|  1.7977e-01|   -2.310733|    2.043004|    0.247028|  2.6620e+00|  2.6620e+00|  2.6620e+00|
|           3|  2.0583e-01|   -2.318202|    2.042524|    0.246684|  2.9282e+00|  2.9282e+00|  2.9282e+00|
|           4|  1.8885e-01|   -2.325381|    2.042120|    0.246320|  3.2210e+00|  3.2210e+00|  3.2210e+00|
|           5|  1.6951e-01|   -2.330618|    2.041645|    0.245875|  3.5431e+00|  3.5431e+00|  3.5431e+00|
|           6|  1.5645e-01|   -2.336840|    2.041142|    0.245377|  3.8974e+00|  3.8974e+00|  3.8974e+00|
|           7|  1.4727e-01|   -2.341876|    2.040478|    0.244871|  4.2872e+00|  4.2872e+00|  4.2872e+00|
|           8|  1.3983e-01|   -2.347843|    2.039788|    0.244340|  4.7159e+00|  4.7159e+00|  4.7159e+00|
|           9|  1.3400e-01|   -2.358149|    2.039143|    0.243849|  5.1875e+00|  5.1875e+00|  5.1875e+00|
|          10|  1.2979e-01|   -2.374696|    2.038600|    0.243420|  5.7062e+00|  5.7062e+00|  5.7062e+00|
|          11|  1.2604e-01|   -2.395704|    2.038005|    0.243062|  6.2769e+00|  6.2769e+00|  6.2769e+00|
|          12|  1.2318e-01|   -2.415658|    2.037412|    0.242824|  6.2769e+00|  6.9045e+00|  6.9045e+00|
|          13|  1.2630e-01|   -2.436765|    2.036937|    0.242753|  6.2769e+00|  7.5950e+00|  7.5950e+00|
|          14|  1.3807e-01|   -2.457530|    2.036633|    0.242803|  6.9045e+00|  8.3545e+00|  8.3545e+00|
|          15|  1.4373e-01|   -2.475124|    2.036406|    0.242974|  7.5950e+00|  9.1899e+00|  9.1899e+00|
|          16|  1.4028e-01|   -2.487702|    2.036245|    0.243099|  8.3545e+00|  1.0109e+01|  1.0109e+01|
|          17|  1.3729e-01|   -2.502119|    2.035973|    0.243063|  9.1899e+00|  1.1120e+01|  1.1120e+01|
|          18|  1.3445e-01|   -2.520446|    2.035668|    0.242821|  9.1899e+00|  1.2232e+01|  1.2232e+01|
|          19|  1.3200e-01|   -2.541767|    2.035275|    0.242358|  9.1899e+00|  1.3455e+01|  1.3455e+01|
|          20|  1.2991e-01|   -2.559137|    2.034861|    0.241681|  1.0109e+01|  1.4800e+01|  1.4800e+01|
|          21|  1.3021e-01|   -2.578062|    2.034170|    0.241121|  1.1120e+01|  1.6281e+01|  1.6280e+01|
|          22|  1.3575e-01|   -2.592709|    2.033360|    0.240514|  1.2232e+01|  1.7909e+01|  1.7908e+01|
|          23|  1.4205e-01|   -2.609566|    2.032402|    0.239842|  1.3455e+01|  1.9699e+01|  1.9699e+01|
|          24|  1.4171e-01|   -2.623109|    2.031327|    0.239323|  1.3455e+01|  2.1669e+01|  2.1668e+01|
|          25|  1.3943e-01|   -2.645459|    2.030268|    0.238767|  1.4800e+01|  2.3836e+01|  2.3835e+01|
|          26|  1.3747e-01|   -2.656824|    2.029723|    0.238066|  1.6281e+01|  2.6220e+01|  2.6218e+01|
|          27|  1.3564e-01|   -2.665735|    2.029311|    0.237413|  8.1403e+00|  1.3110e+01|  1.3109e+01|
|          28|  1.3388e-01|   -2.662827|    2.029113|    0.236953|  8.9543e+00|  1.4421e+01|  1.4420e+01|
|          29|  1.3227e-01|   -2.696989|    2.029014|    0.236526|  9.8497e+00|  1.5863e+01|  1.5862e+01|
|          30|  1.3388e-01|   -2.710864|    2.029092|    0.236049|  1.0835e+01|  1.7449e+01|  1.7448e+01|
|          31|  1.3743e-01|   -2.711475|    2.028886|    0.235651|  1.1918e+01|  1.9194e+01|  1.9192e+01|
|          32|  1.4109e-01|   -2.714321|    2.028227|    0.235224|  1.3110e+01|  2.1114e+01|  2.1112e+01|
|          33|  1.4045e-01|   -2.714869|    2.026961|    0.234790|  1.4421e+01|  2.3225e+01|  2.3223e+01|
|          34|  1.3886e-01|   -2.700224|    2.025186|    0.234218|  7.2105e+00|  1.1613e+01|  1.1611e+01|
|          35|  1.3741e-01|   -2.694637|    2.023849|    0.233860|  7.9315e+00|  1.2774e+01|  1.2773e+01|
|          36|  1.3598e-01|   -2.729350|    2.022879|    0.233675|  8.7247e+00|  1.4051e+01|  1.4050e+01|
|          37|  1.3503e-01|   -2.742843|    2.021859|    0.233549|  9.5972e+00|  1.5456e+01|  1.5455e+01|
|          38|  1.3372e-01|   -2.727330|    2.020761|    0.233340|  1.0557e+01|  1.7002e+01|  1.7000e+01|
|          39|  1.3250e-01|   -2.716976|    2.019505|    0.233156|  1.1613e+01|  1.8702e+01|  1.8700e+01|
|          40|  1.3133e-01|   -2.707005|    2.018284|    0.232884|  1.2774e+01|  2.0572e+01|  2.0570e+01|
|          41|  1.3019e-01|   -2.698402|    2.017106|    0.232643|  1.4051e+01|  2.2630e+01|  2.2627e+01|
|          42|  1.2964e-01|   -2.677510|    2.016182|    0.232292|  7.0256e+00|  1.1315e+01|  1.1314e+01|
|          43|  1.3286e-01|   -2.669192|    2.015698|    0.232058|  7.7282e+00|  1.2446e+01|  1.2445e+01|
|          44|  1.3394e-01|   -2.703802|    2.015670|    0.231909|  8.5010e+00|  1.3691e+01|  1.3689e+01|
|          45|  1.3275e-01|   -2.707878|    2.015821|    0.231756|  9.3511e+00|  1.5060e+01|  1.5058e+01|
|          46|  1.3172e-01|   -2.701526|    2.016024|    0.231547|  1.0286e+01|  1.6566e+01|  1.6564e+01|
|          47|  1.3075e-01|   -2.692302|    2.016254|    0.231333|  1.1315e+01|  1.8223e+01|  1.8221e+01|
|          48|  1.2980e-01|   -2.678278|    2.016584|    0.231096|  1.2446e+01|  2.0045e+01|  2.0043e+01|
|          49|  1.2888e-01|   -2.674713|    2.017029|    0.230895|  1.3691e+01|  2.2049e+01|  2.2047e+01|
|          50|  1.2801e-01|   -2.660776|    2.017677|    0.230744|  6.8455e+00|  1.1025e+01|  1.1024e+01|
|          51|  1.2782e-01|   -2.651690|    2.018230|    0.230700|  7.5300e+00|  1.2127e+01|  1.2126e+01|
|          52|  1.3001e-01|   -2.681939|    2.018998|    0.230736|  8.2830e+00|  1.3340e+01|  1.3338e+01|
|          53|  1.3106e-01|   -2.691037|    2.019791|    0.230836|  9.1113e+00|  1.4674e+01|  1.4672e+01|
|          54|  1.3014e-01|   -2.676725|    2.020537|    0.230926|  1.0022e+01|  1.6141e+01|  1.6140e+01|
|          55|  1.2929e-01|   -2.670216|    2.021179|    0.231162|  1.1025e+01|  1.7755e+01|  1.7754e+01|
|          56|  1.2852e-01|   -2.656692|    2.021777|    0.231460|  1.2127e+01|  1.9531e+01|  1.9529e+01|
|          57|  1.2778e-01|   -2.644688|    2.022375|    0.231916|  1.3340e+01|  2.1484e+01|  2.1482e+01|
|          58|  1.2703e-01|   -2.629709|    2.022989|    0.232441|  1.4674e+01|  2.3632e+01|  2.3630e+01|
|          59|  1.2632e-01|   -2.614328|    2.023645|    0.233103|  7.3369e+00|  1.1816e+01|  1.1815e+01|
|          60|  1.2565e-01|   -2.591273|    2.024181|    0.233596|  8.0706e+00|  1.2998e+01|  1.2996e+01|
|          61|  1.2644e-01|   -2.613893|    2.024687|    0.234048|  8.8777e+00|  1.4298e+01|  1.4296e+01|
|          62|  1.2833e-01|   -2.620920|    2.025187|    0.234450|  9.7655e+00|  1.5727e+01|  1.5726e+01|
|          63|  1.2880e-01|   -2.607258|    2.025612|    0.234899|  1.0742e+01|  1.7300e+01|  1.7298e+01|
|          64|  1.2809e-01|   -2.599219|    2.025957|    0.235308|  1.1816e+01|  1.9030e+01|  1.9028e+01|
|          65|  1.2741e-01|   -2.582024|    2.026135|    0.235712|  1.2998e+01|  2.0933e+01|  2.0931e+01|
|          66|  1.2677e-01|   -2.571915|    2.026350|    0.236087|  1.4298e+01|  2.3026e+01|  2.3024e+01|
|          67|  1.2614e-01|   -2.542349|    2.026624|    0.236415|  1.4298e+01|  2.3026e+01|  2.3024e+01|
|          68|  1.2556e-01|   -2.564730|    2.027090|    0.236725|  7.1488e+00|  1.1513e+01|  1.1512e+01|
|          69|  1.2498e-01|   -2.568191|    2.027333|    0.236791|  7.8637e+00|  1.2665e+01|  1.2663e+01|
|          70|  1.2442e-01|   -2.601230|    2.027779|    0.236844|  8.6500e+00|  1.3931e+01|  1.3929e+01|
|          71|  1.2525e-01|   -2.619048|    2.027840|    0.236927|  9.5151e+00|  1.5324e+01|  1.5322e+01|
|          72|  1.2690e-01|   -2.620082|    2.028018|    0.237075|  1.0467e+01|  1.6856e+01|  1.6854e+01|
|          73|  1.2812e-01|   -2.613619|    2.027874|    0.237021|  1.1513e+01|  1.8542e+01|  1.8539e+01|
|          74|  1.2752e-01|   -2.601607|    2.027718|    0.236974|  6.3323e+00|  1.8542e+01|  1.8538e+01|
|          75|  1.2694e-01|   -2.595525|    2.027305|    0.236964|  6.3323e+00|  2.0396e+01|  2.0390e+01|
|          76|  1.2638e-01|   -2.587287|    2.026672|    0.236956|  6.9655e+00|  2.2436e+01|  2.2427e+01|
|          77|  1.2585e-01|   -2.575224|    2.026117|    0.236819|  3.4827e+00|  1.1218e+01|  1.1214e+01|
|          78|  1.2532e-01|   -2.569026|    2.025757|    0.236530|  3.8310e+00|  1.2340e+01|  1.2335e+01|
|          79|  1.2481e-01|   -2.609887|    2.025548|    0.236511|  4.2141e+00|  1.3574e+01|  1.3567e+01|
|          80|  1.2432e-01|   -2.617407|    2.025306|    0.236408|  4.6355e+00|  1.4931e+01|  1.4924e+01|
|          81|  1.2383e-01|   -2.618532|    2.024984|    0.236204|  5.0991e+00|  1.6424e+01|  1.6415e+01|
|          82|  1.2334e-01|   -2.616740|    2.024545|    0.235900|  5.6090e+00|  1.8067e+01|  1.8055e+01|
|          83|  1.2395e-01|   -2.617051|    2.023892|    0.235560|  6.1699e+00|  1.9873e+01|  1.9859e+01|
|          84|  1.2533e-01|   -2.604650|    2.022997|    0.235186|  6.7869e+00|  2.1861e+01|  2.1842e+01|
|          85|  1.2636e-01|   -2.598650|    2.021887|    0.234713|  3.3934e+00|  1.0930e+01|  1.0921e+01|
|          86|  1.2585e-01|   -2.574167|    2.021214|    0.234232|  3.7328e+00|  1.2023e+01|  1.2012e+01|
|          87|  1.2535e-01|   -2.606767|    2.020733|    0.233967|  4.1061e+00|  1.3226e+01|  1.3213e+01|
|          88|  1.2488e-01|   -2.632035|    2.020468|    0.233689|  4.5167e+00|  1.4548e+01|  1.4533e+01|
|          89|  1.2442e-01|   -2.640965|    2.020127|    0.233248|  4.9683e+00|  1.6003e+01|  1.5985e+01|
|          90|  1.2401e-01|   -2.640146|    2.019590|    0.232702|  5.4652e+00|  1.7603e+01|  1.7582e+01|
|          91|  1.2357e-01|   -2.641070|    2.018828|    0.232247|  6.0117e+00|  1.9364e+01|  1.9338e+01|
|          92|  1.2314e-01|   -2.633507|    2.017959|    0.231808|  6.6129e+00|  2.1300e+01|  2.1269e+01|
|          93|  1.2274e-01|   -2.627687|    2.017070|    0.231171|  3.3064e+00|  1.0650e+01|  1.0634e+01|
|          94|  1.2234e-01|   -2.617531|    2.016354|    0.230549|  3.6371e+00|  1.1715e+01|  1.1697e+01|
|          95|  1.2195e-01|   -2.653793|    2.015868|    0.230111|  4.0008e+00|  1.2887e+01|  1.2866e+01|
|          96|  1.2158e-01|   -2.661721|    2.015728|    0.229706|  4.4009e+00|  1.4175e+01|  1.4151e+01|
|          97|  1.2122e-01|   -2.656459|    2.015295|    0.229329|  4.8409e+00|  1.5593e+01|  1.5565e+01|
|          98|  1.2193e-01|   -2.645320|    2.014657|    0.228694|  5.3250e+00|  1.7152e+01|  1.7120e+01|
|          99|  1.2315e-01|   -2.633609|    2.013722|    0.227906|  5.8575e+00|  1.8867e+01|  1.8830e+01|
|         100|  1.2437e-01|   -2.613339|    2.012576|    0.227018|  6.4433e+00|  2.0754e+01|  2.0710e+01|
|         101|  1.2461e-01|   -2.601266|    2.011319|    0.226033|  7.0876e+00|  2.2829e+01|  2.2778e+01|
|         102|  1.2419e-01|   -2.589228|    2.009796|    0.224867|  3.5438e+00|  1.1415e+01|  1.1389e+01|
|         103|  1.2380e-01|   -2.579553|    2.008773|    0.223773|  3.8982e+00|  1.2556e+01|  1.2527e+01|
|         104|  1.2342e-01|   -2.605928|    2.008110|    0.222858|  4.2880e+00|  1.3812e+01|  1.3779e+01|
|         105|  1.2306e-01|   -2.612778|    2.007387|    0.222009|  4.7168e+00|  1.5193e+01|  1.5156e+01|
|         106|  1.2269e-01|   -2.607931|    2.006236|    0.220991|  5.1885e+00|  1.6712e+01|  1.6670e+01|
|         107|  1.2234e-01|   -2.601183|    2.004827|    0.219812|  5.7073e+00|  1.8383e+01|  1.8335e+01|
|         108|  1.2201e-01|   -2.584337|    2.003559|    0.218516|  6.2781e+00|  2.0222e+01|  2.0166e+01|
|         109|  1.2167e-01|   -2.570778|    2.001770|    0.216934|  3.1390e+00|  1.0111e+01|  1.0083e+01|
|         110|  1.2133e-01|   -2.554056|    2.000450|    0.215816|  3.1390e+00|  1.1122e+01|  1.1091e+01|
|         111|  1.2101e-01|   -2.591184|    1.999580|    0.214919|  3.1390e+00|  1.2234e+01|  1.2199e+01|
|         112|  1.2070e-01|   -2.590886|    1.999201|    0.214105|  3.4529e+00|  1.3458e+01|  1.3418e+01|
|         113|  1.2049e-01|   -2.577029|    1.998596|    0.213325|  3.7982e+00|  1.4803e+01|  1.4759e+01|
|         114|  1.2157e-01|   -2.556882|    1.997489|    0.212356|  4.1781e+00|  1.6284e+01|  1.6234e+01|
|         115|  1.2192e-01|   -2.541471|    1.996394|    0.211468|  4.5959e+00|  1.7912e+01|  1.7857e+01|
|         116|  1.2166e-01|   -2.514475|    1.995275|    0.210473|  5.0555e+00|  1.9703e+01|  1.9641e+01|
|         117|  1.2135e-01|   -2.484748|    1.994384|    0.209694|  2.5277e+00|  9.8517e+00|  9.8203e+00|
|         118|  1.2105e-01|   -2.452451|    1.993883|    0.209312|  2.7805e+00|  1.0837e+01|  1.0802e+01|
|         119|  1.2074e-01|   -2.475993|    1.993677|    0.208908|  3.0586e+00|  1.1921e+01|  1.1882e+01|
|         120|  1.2045e-01|   -2.481254|    1.993865|    0.208795|  3.3644e+00|  1.3113e+01|  1.3070e+01|
|         121|  1.2017e-01|   -2.469717|    1.993750|    0.208567|  1.6822e+00|  6.5563e+00|  6.5348e+00|
|         122|  1.1988e-01|   -2.448023|    1.993599|    0.208587|  1.0000e+00|  3.2781e+00|  3.2674e+00|
|         123|  1.1953e-01|   -2.470600|    1.993584|    0.208566|  1.0000e+00|  1.6391e+00|  1.6337e+00|
|         124|  1.1914e-01|   -2.496379|    1.994031|    0.208592|  1.0000e+00|  1.0000e+00|  1.0000e+00|
|         125|  1.1965e-01|   -2.512191|    1.994418|    0.208636|  1.0000e+00|  1.0000e+00|  1.0000e+00|
|         126|  1.2044e-01|   -2.522360|    1.994843|    0.208700|  1.0000e+00|  1.0000e+00|  1.0000e+00|
|         127|  1.2106e-01|   -2.525926|    1.995116|    0.208716|  1.0000e+00|  1.0000e+00|  1.0000e+00|
|         128|  1.2163e-01|   -2.526743|    1.995371|    0.208762|  1.1000e+00|  1.1000e+00|  1.1000e+00|
|         129|  1.2246e-01|   -2.525996|    1.995550|    0.208765|  1.0000e+00|  1.0000e+00|  1.0000e+00|
|         130|  1.2216e-01|   -2.524551|    1.995738|    0.208804|  1.1000e+00|  1.1000e+00|  1.1000e+00|
|         131|  1.2185e-01|   -2.529607|    1.995872|    0.208809|  1.0000e+00|  1.0000e+00|  1.0000e+00|
|         132|  1.2153e-01|   -2.529254|    1.995999|    0.208845|  1.0000e+00|  1.0000e+00|  1.0000e+00|
|         133|  1.2108e-01|   -2.529582|    1.996027|    0.208834|  1.0000e+00|  1.0000e+00|  1.0000e+00|
|         134|  1.2068e-01|   -2.529072|    1.996101|    0.208865|  1.0000e+00|  1.0000e+00|  1.0000e+00|
|         135|  1.2026e-01|   -2.527777|    1.996084|    0.208846|  1.0000e+00|  1.0000e+00|  1.0000e+00|
|         136|  1.1986e-01|   -2.526266|    1.996120|    0.208872|  1.0000e+00|  1.0000e+00|  1.0000e+00|
|         137|  1.1946e-01|   -2.527062|    1.996072|    0.208851|  1.0000e+00|  1.0000e+00|  1.0000e+00|
|         138|  1.1906e-01|   -2.525858|    1.996091|    0.208873|  1.0000e+00|  1.0000e+00|  1.0000e+00|
|         139|  1.1867e-01|   -2.524554|    1.996054|    0.208855|  1.0000e+00|  1.0000e+00|  1.0000e+00|
|         140|  1.1829e-01|   -2.522625|    1.996064|    0.208870|  1.0000e+00|  1.0000e+00|  1.0000e+00|
|         141|  1.1791e-01|   -2.519423|    1.996009|    0.208854|  1.0000e+00|  1.0000e+00|  1.0000e+00|
|         142|  1.1756e-01|   -2.517973|    1.996016|    0.208863|  1.0000e+00|  1.0000e+00|  1.0000e+00|
|         143|  1.1719e-01|   -2.518690|    1.996013|    0.208857|  1.0000e+00|  1.0000e+00|  1.0000e+00|
|         144|  1.1683e-01|   -2.517450|    1.996010|    0.208862|  1.0000e+00|  1.0000e+00|  1.0000e+00|
|         145|  1.1648e-01|   -2.515981|    1.995963|    0.208860|  1.0000e+00|  1.0000e+00|  1.0000e+00|
|         146|  1.1652e-01|   -2.516150|    1.995967|    0.208866|  1.0000e+00|  1.0000e+00|  1.0000e+00|
|         147|  1.1708e-01|   -2.514817|    1.995978|    0.208873|  1.0000e+00|  1.0000e+00|  1.0000e+00|
|         148|  1.1761e-01|   -2.512621|    1.995976|    0.208878|  1.0000e+00|  1.0000e+00|  1.0000e+00|
|         149|  1.1762e-01|   -2.512605|    1.995941|    0.208886|  1.0000e+00|  1.0000e+00|  1.0000e+00|
|         150|  1.1725e-01|   -2.512857|    1.995950|    0.208891|  1.0000e+00|  1.0000e+00|  1.0000e+00|
|         151|  1.1691e-01|   -2.512818|    1.995975|    0.208909|  1.0000e+00|  1.0000e+00|  1.0000e+00|
|         152|  1.1660e-01|   -2.511029|    1.995975|    0.208913|  1.0000e+00|  1.0000e+00|  1.0000e+00|
|         153|  1.1632e-01|   -2.507323|    1.995952|    0.208929|  1.0000e+00|  1.0000e+00|  1.0000e+00|
|         154|  1.1599e-01|   -2.505976|    1.995966|    0.208934|  1.0000e+00|  1.0000e+00|  1.0000e+00|
|         155|  1.1567e-01|   -2.507237|    1.996003|    0.208958|  1.0000e+00|  1.0000e+00|  1.0000e+00|
|         156|  1.1536e-01|   -2.505557|    1.996000|    0.208960|  1.0000e+00|  1.0000e+00|  1.0000e+00|
|         157|  1.1507e-01|   -2.503987|    1.995976|    0.208980|  1.0000e+00|  1.0000e+00|  1.0000e+00|
|         158|  1.1475e-01|   -2.504584|    1.995992|    0.208983|  1.0000e+00|  1.0000e+00|  1.0000e+00|
|         159|  1.1444e-01|   -2.503392|    1.996039|    0.209011|  1.0000e+00|  1.0000e+00|  1.0000e+00|
|         160|  1.1415e-01|   -2.500699|    1.996044|    0.209012|  1.0000e+00|  1.0000e+00|  1.0000e+00|
|         161|  1.1410e-01|   -2.500549|    1.996030|    0.209037|  1.0000e+00|  1.0000e+00|  1.0000e+00|
|         162|  1.1464e-01|   -2.501092|    1.996051|    0.209040|  1.0000e+00|  1.0000e+00|  1.0000e+00|
|         163|  1.1521e-01|   -2.501190|    1.996105|    0.209074|  1.0000e+00|  1.0000e+00|  1.0000e+00|
|         164|  1.1499e-01|   -2.499494|    1.996107|    0.209076|  1.0000e+00|  1.0000e+00|  1.0000e+00|
|         165|  1.1468e-01|   -2.496375|    1.996093|    0.209108|  1.0000e+00|  1.0000e+00|  1.0000e+00|
|         166|  1.1438e-01|   -2.495522|    1.996118|    0.209116|  1.0000e+00|  1.0000e+00|  1.0000e+00|
|         167|  1.1410e-01|   -2.496985|    1.996173|    0.209157|  1.0000e+00|  1.0000e+00|  1.0000e+00|
|         168|  1.1382e-01|   -2.495534|    1.996173|    0.209164|  1.0000e+00|  1.0000e+00|  1.0000e+00|
|         169|  1.1354e-01|   -2.494034|    1.996162|    0.209201|  1.0000e+00|  1.0000e+00|  1.0000e+00|
|         170|  1.1326e-01|   -2.494331|    1.996182|    0.209209|  1.0000e+00|  1.0000e+00|  1.0000e+00|
|         171|  1.1299e-01|   -2.492749|    1.996237|    0.209251|  1.0000e+00|  1.0000e+00|  1.0000e+00|
|         172|  1.1272e-01|   -2.489647|    1.996235|    0.209259|  1.0000e+00|  1.0000e+00|  1.0000e+00|
|         173|  1.1245e-01|   -2.489552|    1.996224|    0.209301|  1.0000e+00|  1.0000e+00|  1.0000e+00|
|         174|  1.1220e-01|   -2.489931|    1.996248|    0.209314|  1.0000e+00|  1.0000e+00|  1.0000e+00|
|         175|  1.1194e-01|   -2.489780|    1.996306|    0.209366|  1.0000e+00|  1.0000e+00|  1.0000e+00|
|         176|  1.1168e-01|   -2.487873|    1.996305|    0.209378|  1.0000e+00|  1.0000e+00|  1.0000e+00|
|         177|  1.1142e-01|   -2.484764|    1.996294|    0.209425|  1.0000e+00|  1.0000e+00|  1.0000e+00|
|         178|  1.1118e-01|   -2.483795|    1.996316|    0.209440|  1.0000e+00|  1.0000e+00|  1.0000e+00|
|         179|  1.1112e-01|   -2.485420|    1.996372|    0.209493|  1.0000e+00|  1.0000e+00|  1.0000e+00|
|         180|  1.1161e-01|   -2.483646|    1.996369|    0.209505|  1.0000e+00|  1.0000e+00|  1.0000e+00|
|         181|  1.1211e-01|   -2.482073|    1.996359|    0.209552|  1.0000e+00|  1.0000e+00|  1.0000e+00|
|         182|  1.1216e-01|   -2.482556|    1.996381|    0.209566|  1.0000e+00|  1.0000e+00|  1.0000e+00|
|         183|  1.1189e-01|   -2.480890|    1.996434|    0.209619|  1.0000e+00|  1.0000e+00|  1.0000e+00|
|         184|  1.1163e-01|   -2.477688|    1.996429|    0.209631|  1.0000e+00|  1.0000e+00|  1.0000e+00|
|         185|  1.1137e-01|   -2.478062|    1.996419|    0.209679|  1.0000e+00|  1.0000e+00|  1.0000e+00|
|         186|  1.1112e-01|   -2.478493|    1.996449|    0.209695|  1.0000e+00|  1.0000e+00|  1.0000e+00|
|         187|  1.1088e-01|   -2.478196|    1.996509|    0.209750|  1.0000e+00|  1.0000e+00|  1.0000e+00|
|         188|  1.1065e-01|   -2.476229|    1.996509|    0.209765|  1.0000e+00|  1.0000e+00|  1.0000e+00|
|         189|  1.1042e-01|   -2.472995|    1.996506|    0.209814|  1.0000e+00|  1.0000e+00|  1.0000e+00|
|         190|  1.1018e-01|   -2.471834|    1.996534|    0.209832|  1.0000e+00|  1.0000e+00|  1.0000e+00|
|         191|  1.0994e-01|   -2.473555|    1.996596|    0.209888|  1.0000e+00|  1.0000e+00|  1.0000e+00|
|         192|  1.0972e-01|   -2.471871|    1.996597|    0.209904|  1.0000e+00|  1.0000e+00|  1.0000e+00|
|         193|  1.0949e-01|   -2.470303|    1.996594|    0.209955|  1.0000e+00|  1.0000e+00|  1.0000e+00|
|         194|  1.0927e-01|   -2.470535|    1.996619|    0.209976|  1.0000e+00|  1.0000e+00|  1.0000e+00|
|         195|  1.0906e-01|   -2.468507|    1.996679|    0.210031|  1.0000e+00|  1.0000e+00|  1.0000e+00|
|         196|  1.0884e-01|   -2.465369|    1.996675|    0.210050|  1.0000e+00|  1.0000e+00|  1.0000e+00|
|         197|  1.0896e-01|   -2.465301|    1.996667|    0.210101|  1.0000e+00|  1.0000e+00|  1.0000e+00|
|         198|  1.0949e-01|   -2.465521|    1.996695|    0.210125|  1.0000e+00|  1.0000e+00|  1.0000e+00|
|         199|  1.0970e-01|   -2.464977|    1.996753|    0.210181|  1.0000e+00|  1.0000e+00|  1.0000e+00|
|         200|  1.0947e-01|   -2.463004|    1.996752|    0.210204|  1.0000e+00|  1.0000e+00|  1.0000e+00|
|         201|  1.0926e-01|   -2.459837|    1.996736|    0.210245|  1.0000e+00|  1.0000e+00|  1.0000e+00|
|         202|  1.0905e-01|   -2.459457|    1.996767|    0.210280|  1.0000e+00|  1.0000e+00|  1.0000e+00|
|         203|  1.0885e-01|   -2.460584|    1.996805|    0.210320|  1.0000e+00|  1.0000e+00|  1.0000e+00|
|         204|  1.0866e-01|   -2.458598|    1.996811|    0.210358|  1.0000e+00|  1.0000e+00|  1.0000e+00|
|         205|  1.0846e-01|   -2.456886|    1.996783|    0.210390|  1.0000e+00|  1.0000e+00|  1.0000e+00|
|         206|  1.0826e-01|   -2.455345|    1.996825|    0.210434|  1.0000e+00|  1.0000e+00|  1.0000e+00|
|         207|  1.0807e-01|   -2.453129|    1.996862|    0.210469|  1.0000e+00|  1.0000e+00|  1.0000e+00|
|         208|  1.0788e-01|   -2.452607|    1.996879|    0.210513|  1.0000e+00|  1.0000e+00|  1.0000e+00|
|         209|  1.0769e-01|   -2.450734|    1.996852|    0.210541|  1.0000e+00|  1.0000e+00|  1.0000e+00|
|         210|  1.0750e-01|   -2.450465|    1.996903|    0.210590|  1.0000e+00|  1.0000e+00|  1.0000e+00|
|         211|  1.0731e-01|   -2.449623|    1.996938|    0.210623|  1.0000e+00|  1.0000e+00|  1.0000e+00|
|         212|  1.0713e-01|   -2.445966|    1.996954|    0.210671|  1.0000e+00|  1.0000e+00|  1.0000e+00|
|         213|  1.0695e-01|   -2.444079|    1.996923|    0.210700|  1.0000e+00|  1.0000e+00|  1.0000e+00|
|         214|  1.0676e-01|   -2.445486|    1.996975|    0.210753|  1.0000e+00|  1.0000e+00|  1.0000e+00|
|         215|  1.0658e-01|   -2.444994|    1.997016|    0.210784|  1.0000e+00|  1.0000e+00|  1.0000e+00|
|         216|  1.0640e-01|   -2.443041|    1.997041|    0.210833|  1.0000e+00|  1.0000e+00|  1.0000e+00|
|         217|  1.0642e-01|   -2.440159|    1.997014|    0.210856|  1.0000e+00|  1.0000e+00|  1.0000e+00|
|         218|  1.0690e-01|   -2.440031|    1.997069|    0.210909|  1.0000e+00|  1.0000e+00|  1.0000e+00|
|         219|  1.0737e-01|   -2.440757|    1.997104|    0.210938|  1.0000e+00|  1.0000e+00|  1.0000e+00|
|         220|  1.0727e-01|   -2.438952|    1.997135|    0.210990|  1.0000e+00|  1.0000e+00|  1.0000e+00|
|         221|  1.0707e-01|   -2.437565|    1.997102|    0.211016|  1.0000e+00|  1.0000e+00|  1.0000e+00|
|         222|  1.0689e-01|   -2.436205|    1.997156|    0.211074|  1.0000e+00|  1.0000e+00|  1.0000e+00|
|         223|  1.0671e-01|   -2.435201|    1.997190|    0.211105|  1.0000e+00|  1.0000e+00|  1.0000e+00|
|         224|  1.0654e-01|   -2.434338|    1.997214|    0.211159|  1.0000e+00|  1.0000e+00|  1.0000e+00|
|         225|  1.0637e-01|   -2.432895|    1.997183|    0.211182|  1.0000e+00|  1.0000e+00|  1.0000e+00|
|         226|  1.0619e-01|   -2.432960|    1.997236|    0.211242|  1.0000e+00|  1.0000e+00|  1.0000e+00|
|         227|  1.0602e-01|   -2.430772|    1.997271|    0.211274|  1.0000e+00|  1.0000e+00|  1.0000e+00|
|         228|  1.0586e-01|   -2.428346|    1.997291|    0.211334|  1.0000e+00|  1.0000e+00|  1.0000e+00|
|         229|  1.0576e-01|   -2.427731|    1.997265|    0.211367|  1.0000e+00|  1.0000e+00|  1.0000e+00|
|         230|  1.0560e-01|   -2.427691|    1.997321|    0.211432|  1.0000e+00|  1.0000e+00|  1.0000e+00|
|         231|  1.0544e-01|   -2.426962|    1.997360|    0.211472|  1.0000e+00|  1.0000e+00|  1.0000e+00|
|         232|  1.0528e-01|   -2.423911|    1.997388|    0.211539|  1.0000e+00|  1.0000e+00|  1.0000e+00|
|         233|  1.0512e-01|   -2.422240|    1.997365|    0.211574|  1.0000e+00|  1.0000e+00|  1.0000e+00|
|         234|  1.0495e-01|   -2.423863|    1.997428|    0.211643|  1.0000e+00|  1.0000e+00|  1.0000e+00|
|         235|  1.0479e-01|   -2.423584|    1.997469|    0.211683|  1.0000e+00|  1.0000e+00|  1.0000e+00|
|         236|  1.0463e-01|   -2.422025|    1.997499|    0.211750|  1.0000e+00|  1.0000e+00|  1.0000e+00|
|         237|  1.0448e-01|   -2.419529|    1.997479|    0.211786|  1.0000e+00|  1.0000e+00|  1.0000e+00|
|         238|  1.0461e-01|   -2.419487|    1.997546|    0.211861|  1.0000e+00|  1.0000e+00|  1.0000e+00|
|         239|  1.0498e-01|   -2.420370|    1.997592|    0.211908|  1.0000e+00|  1.0000e+00|  1.0000e+00|
|         240|  1.0538e-01|   -2.418683|    1.997630|    0.211983|  1.0000e+00|  1.0000e+00|  1.0000e+00|
|         241|  1.0579e-01|   -2.416293|    1.997616|    0.212027|  1.0000e+00|  1.0000e+00|  1.0000e+00|
|         242|  1.0622e-01|   -2.415176|    1.997672|    0.212088|  1.0000e+00|  1.0000e+00|  1.0000e+00|
|         243|  1.0634e-01|   -2.415951|    1.997721|    0.212138|  1.0000e+00|  1.0000e+00|  1.0000e+00|
|         244|  1.0617e-01|   -2.414281|    1.997738|    0.212191|  1.0000e+00|  1.0000e+00|  1.0000e+00|
|         245|  1.0601e-01|   -2.413095|    1.997719|    0.212237|  1.0000e+00|  1.0000e+00|  1.0000e+00|
|         246|  1.0585e-01|   -2.412248|    1.997766|    0.212295|  1.0000e+00|  1.0000e+00|  1.0000e+00|
|         247|  1.0570e-01|   -2.411182|    1.997814|    0.212347|  1.0000e+00|  1.0000e+00|  1.0000e+00|
|         248|  1.0554e-01|   -2.410677|    1.997835|    0.212399|  1.0000e+00|  1.0000e+00|  1.0000e+00|
|         249|  1.0538e-01|   -2.409585|    1.997828|    0.212447|  1.0000e+00|  1.0000e+00|  1.0000e+00|
|         250|  1.0523e-01|   -2.409654|    1.997878|    0.212503|  1.0000e+00|  1.0000e+00|  1.0000e+00|
|         251|  1.0508e-01|   -2.408811|    1.997930|    0.212559|  1.0000e+00|  1.0000e+00|  1.0000e+00|
|         252|  1.0493e-01|   -2.406625|    1.997940|    0.212611|  1.0000e+00|  1.0000e+00|  1.0000e+00|
|         253|  1.0478e-01|   -2.406588|    1.997926|    0.212667|  1.0000e+00|  1.0000e+00|  1.0000e+00|
|         254|  1.0463e-01|   -2.406862|    1.997967|    0.212727|  1.0000e+00|  1.0000e+00|  1.0000e+00|
|         255|  1.0449e-01|   -2.406312|    1.998013|    0.212796|  1.0000e+00|  1.0000e+00|  1.0000e+00|
|         256|  1.0435e-01|   -2.403253|    1.998011|    0.212865|  1.0000e+00|  1.0000e+00|  1.0000e+00|
|         257|  1.0421e-01|   -2.401791|    1.997977|    0.212945|  1.0000e+00|  1.0000e+00|  1.0000e+00|
|         258|  1.0420e-01|   -2.402680|    1.998003|    0.213027|  1.0000e+00|  1.0000e+00|  1.0000e+00|
|         259|  1.0455e-01|   -2.402139|    1.998042|    0.213116|  1.0000e+00|  1.0000e+00|  1.0000e+00|
|         260|  1.0493e-01|   -2.399515|    1.998041|    0.213192|  1.0000e+00|  1.0000e+00|  1.0000e+00|
|         261|  1.0500e-01|   -2.397665|    1.998020|    0.213275|  1.0000e+00|  1.0000e+00|  1.0000e+00|
|         262|  1.0483e-01|   -2.398133|    1.998052|    0.213350|  1.0000e+00|  1.0000e+00|  1.0000e+00|
|         263|  1.0468e-01|   -2.397406|    1.998097|    0.213435|  1.0000e+00|  1.0000e+00|  1.0000e+00|
|         264|  1.0453e-01|   -2.395643|    1.998099|    0.213499|  1.0000e+00|  1.0000e+00|  1.0000e+00|
|         265|  1.0438e-01|   -2.393253|    1.998086|    0.213572|  1.0000e+00|  1.0000e+00|  1.0000e+00|
|         266|  1.0423e-01|   -2.393076|    1.998125|    0.213634|  1.0000e+00|  1.0000e+00|  1.0000e+00|
|         267|  1.0409e-01|   -2.393569|    1.998178|    0.213711|  1.1000e+00|  1.1000e+00|  1.1000e+00|
|         268|  1.0394e-01|   -2.391982|    1.998185|    0.213770|  1.2100e+00|  1.2100e+00|  1.2100e+00|
|         269|  1.0380e-01|   -2.389362|    1.998163|    0.213853|  1.3310e+00|  1.3310e+00|  1.3310e+00|
|         270|  1.0365e-01|   -2.387901|    1.998192|    0.213930|  1.4641e+00|  1.4641e+00|  1.4641e+00|
|         271|  1.0354e-01|   -2.387236|    1.998178|    0.214028|  1.6105e+00|  1.6105e+00|  1.6105e+00|
|         272|  1.0342e-01|   -2.385301|    1.998202|    0.214118|  1.7716e+00|  1.7716e+00|  1.7716e+00|
|         273|  1.0331e-01|   -2.381644|    1.998151|    0.214234|  1.9487e+00|  1.9487e+00|  1.9487e+00|
|         274|  1.0319e-01|   -2.379284|    1.998169|    0.214344|  2.1436e+00|  2.1436e+00|  2.1436e+00|
|         275|  1.0308e-01|   -2.378170|    1.998188|    0.214489|  2.3579e+00|  2.3579e+00|  2.3579e+00|
|         276|  1.0315e-01|   -2.376263|    1.998245|    0.214618|  2.5937e+00|  2.5937e+00|  2.5937e+00|
|         277|  1.0357e-01|   -2.371368|    1.998208|    0.214780|  2.8531e+00|  2.8531e+00|  2.8531e+00|
|         278|  1.0376e-01|   -2.366756|    1.998153|    0.214932|  3.1384e+00|  3.1384e+00|  3.1384e+00|
|         279|  1.0370e-01|   -2.364018|    1.998112|    0.215127|  3.4523e+00|  3.4523e+00|  3.4523e+00|
|         280|  1.0360e-01|   -2.360318|    1.998187|    0.215343|  3.7975e+00|  3.7975e+00|  3.7975e+00|
|         281|  1.0352e-01|   -2.353514|    1.998205|    0.215562|  4.1772e+00|  4.1772e+00|  4.1772e+00|
|         282|  1.0344e-01|   -2.346814|    1.998148|    0.215827|  4.5950e+00|  4.5950e+00|  4.5950e+00|
|         283|  1.0338e-01|   -2.341193|    1.997950|    0.216060|  5.0545e+00|  5.0545e+00|  5.0545e+00|
|         284|  1.0332e-01|   -2.334800|    1.997830|    0.216372|  5.5599e+00|  5.5599e+00|  5.5599e+00|
|         285|  1.0327e-01|   -2.325798|    1.997829|    0.216664|  6.1159e+00|  6.1159e+00|  6.1159e+00|
|         286|  1.0321e-01|   -2.315926|    1.997687|    0.217026|  6.7275e+00|  6.7275e+00|  6.7275e+00|
|         287|  1.0316e-01|   -2.308155|    1.997567|    0.217377|  7.4002e+00|  7.4002e+00|  7.4002e+00|
|         288|  1.0311e-01|   -2.299886|    1.997428|    0.217781|  8.1403e+00|  8.1403e+00|  8.1403e+00|
|         289|  1.0306e-01|   -2.289147|    1.997554|    0.218256|  8.9543e+00|  8.9543e+00|  8.9543e+00|
|         290|  1.0300e-01|   -2.278711|    1.997670|    0.218757|  8.9543e+00|  9.8497e+00|  9.8497e+00|
|         291|  1.0294e-01|   -2.264519|    1.997854|    0.219266|  8.9543e+00|  1.0835e+01|  1.0835e+01|
|         292|  1.0287e-01|   -2.242675|    1.997983|    0.219758|  8.9543e+00|  1.1918e+01|  1.1918e+01|
|         293|  1.0310e-01|   -2.230773|    1.998122|    0.220316|  9.8497e+00|  1.3110e+01|  1.3110e+01|
|         294|  1.0359e-01|   -2.213920|    1.997995|    0.221045|  1.0835e+01|  1.4421e+01|  1.4421e+01|
|         295|  1.0386e-01|   -2.199913|    1.998278|    0.221670|  1.1918e+01|  1.5863e+01|  1.5863e+01|
|         296|  1.0383e-01|   -2.178708|    1.998549|    0.222105|  1.1918e+01|  1.7449e+01|  1.7449e+01|
|         297|  1.0376e-01|   -2.166836|    1.998939|    0.222625|  1.3110e+01|  1.9194e+01|  1.9193e+01|
|         298|  1.0370e-01|   -2.144511|    1.999111|    0.222887|  1.4421e+01|  2.1114e+01|  2.1112e+01|
|         299|  1.0365e-01|   -2.110296|    1.999683|    0.222865|  7.2105e+00|  1.0557e+01|  1.0556e+01|
|         300|  1.0359e-01|   -2.099368|    1.999945|    0.222912|  7.9315e+00|  1.1613e+01|  1.1612e+01|
|         301|  1.0353e-01|   -2.134696|    2.000378|    0.222907|  8.7247e+00|  1.2774e+01|  1.2773e+01|
|         302|  1.0348e-01|   -2.131029|    2.000890|    0.222707|  9.5972e+00|  1.4051e+01|  1.4050e+01|
|         303|  1.0343e-01|   -2.118093|    2.001710|    0.222337|  1.0557e+01|  1.5456e+01|  1.5455e+01|
|         304|  1.0337e-01|   -2.103185|    2.002318|    0.221931|  1.1613e+01|  1.7002e+01|  1.7001e+01|
|         305|  1.0331e-01|   -2.087624|    2.003260|    0.221526|  1.2774e+01|  1.8702e+01|  1.8701e+01|
|         306|  1.0326e-01|   -2.084647|    2.004290|    0.221263|  6.3869e+00|  9.3511e+00|  9.3504e+00|
|         307|  1.0321e-01|   -2.081390|    2.005188|    0.221042|  7.0256e+00|  1.0286e+01|  1.0285e+01|
|         308|  1.0315e-01|   -2.107654|    2.006456|    0.220806|  7.7282e+00|  1.1315e+01|  1.1314e+01|
|         309|  1.0343e-01|   -2.118820|    2.007904|    0.220803|  8.5010e+00|  1.2446e+01|  1.2445e+01|
|         310|  1.0389e-01|   -2.113702|    2.009079|    0.220810|  9.3511e+00|  1.3691e+01|  1.3690e+01|
|         311|  1.0434e-01|   -2.107768|    2.010416|    0.220755|  1.0286e+01|  1.5060e+01|  1.5059e+01|
|         312|  1.0480e-01|   -2.091225|    2.011859|    0.220536|  1.1315e+01|  1.6566e+01|  1.6565e+01|
|         313|  1.0491e-01|   -2.088538|    2.013331|    0.220682|  1.2446e+01|  1.8223e+01|  1.8221e+01|
|         314|  1.0483e-01|   -2.069002|    2.014785|    0.220755|  1.3691e+01|  2.0045e+01|  2.0043e+01|
|         315|  1.0477e-01|   -2.040113|    2.016357|    0.221148|  1.3691e+01|  2.0045e+01|  2.0043e+01|
|         316|  1.0470e-01|   -2.019880|    2.017910|    0.221492|  1.3691e+01|  2.0045e+01|  2.0043e+01|
|         317|  1.0464e-01|   -2.005798|    2.019440|    0.221792|  6.8455e+00|  1.0022e+01|  1.0022e+01|
|         318|  1.0459e-01|   -1.983643|    2.020442|    0.221924|  7.5300e+00|  1.1025e+01|  1.1024e+01|
|         319|  1.0453e-01|   -2.014770|    2.021557|    0.222075|  8.2830e+00|  1.2127e+01|  1.2126e+01|
|         320|  1.0446e-01|   -2.009592|    2.022267|    0.222119|  9.1113e+00|  1.3340e+01|  1.3339e+01|
|         321|  1.0440e-01|   -1.992232|    2.023069|    0.222087|  1.0022e+01|  1.4674e+01|  1.4673e+01|
|         322|  1.0435e-01|   -1.970613|    2.023299|    0.221878|  1.0000e+00|  1.0000e+00|  1.0000e+00|
|         323|  1.0423e-01|   -1.953544|    2.023369|    0.221833|  1.1000e+00|  1.1000e+00|  1.1000e+00|
|         324|  1.0411e-01|   -1.976121|    2.023990|    0.221868|  1.2100e+00|  1.2100e+00|  1.2100e+00|
|         325|  1.0399e-01|   -1.990028|    2.024712|    0.221896|  1.3310e+00|  1.3310e+00|  1.3310e+00|
|         326|  1.0388e-01|   -2.000185|    2.025302|    0.221918|  1.4641e+00|  1.4641e+00|  1.4641e+00|
|         327|  1.0376e-01|   -2.006772|    2.025765|    0.221923|  1.6105e+00|  1.6105e+00|  1.6105e+00|
|         328|  1.0365e-01|   -2.011186|    2.026111|    0.221924|  1.7716e+00|  1.7716e+00|  1.7716e+00|
|         329|  1.0355e-01|   -2.013564|    2.026439|    0.221920|  1.9487e+00|  1.9487e+00|  1.9487e+00|
|         330|  1.0350e-01|   -2.014311|    2.026535|    0.221884|  2.1436e+00|  2.1436e+00|  2.1436e+00|
|         331|  1.0380e-01|   -2.013691|    2.026444|    0.221825|  2.3579e+00|  2.3579e+00|  2.3579e+00|
|         332|  1.0412e-01|   -2.012197|    2.026228|    0.221739|  2.5937e+00|  2.5937e+00|  2.5937e+00|
|         333|  1.0424e-01|   -2.010128|    2.026034|    0.221648|  2.8531e+00|  2.8531e+00|  2.8531e+00|
|         334|  1.0414e-01|   -2.007603|    2.025942|    0.221559|  3.1384e+00|  3.1384e+00|  3.1384e+00|
|         335|  1.0406e-01|   -2.004156|    2.025731|    0.221459|  3.4523e+00|  3.4523e+00|  3.4523e+00|
|         336|  1.0397e-01|   -2.000636|    2.025630|    0.221358|  3.7975e+00|  3.7975e+00|  3.7975e+00|
|         337|  1.0390e-01|   -1.995559|    2.025530|    0.221262|  4.1772e+00|  4.1772e+00|  4.1772e+00|
|         338|  1.0384e-01|   -1.989739|    2.025473|    0.221149|  4.5950e+00|  4.5950e+00|  4.5950e+00|
|         339|  1.0378e-01|   -1.983811|    2.025179|    0.221006|  5.0545e+00|  5.0545e+00|  5.0545e+00|
|         340|  1.0374e-01|   -1.975854|    2.024940|    0.220828|  5.5599e+00|  5.5599e+00|  5.5599e+00|
|         341|  1.0368e-01|   -1.967390|    2.024595|    0.220636|  6.1159e+00|  6.1159e+00|  6.1159e+00|
|         342|  1.0364e-01|   -1.956244|    2.024462|    0.220404|  6.7275e+00|  6.7275e+00|  6.7275e+00|
|         343|  1.0359e-01|   -1.943715|    2.024223|    0.220149|  7.4002e+00|  7.4002e+00|  7.4002e+00|
|         344|  1.0355e-01|   -1.931933|    2.024007|    0.219827|  8.1403e+00|  8.1403e+00|  8.1403e+00|
|         345|  1.0350e-01|   -1.920560|    2.023528|    0.219485|  8.9543e+00|  8.9543e+00|  8.9543e+00|
|         346|  1.0345e-01|   -1.907062|    2.022993|    0.219052|  9.8497e+00|  9.8497e+00|  9.8497e+00|
|         347|  1.0387e-01|   -1.892305|    2.022272|    0.218608|  1.0835e+01|  1.0835e+01|  1.0835e+01|
|         348|  1.0428e-01|   -1.874863|    2.021535|    0.218056|  1.1918e+01|  1.1918e+01|  1.1918e+01|
|         349|  1.0467e-01|   -1.860368|    2.020680|    0.217502|  1.3110e+01|  1.3110e+01|  1.3110e+01|
|         350|  1.0473e-01|   -1.845071|    2.019913|    0.216870|  1.4421e+01|  1.4421e+01|  1.4421e+01|
|         351|  1.0467e-01|   -1.825996|    2.018948|    0.216266|  1.5863e+01|  1.5863e+01|  1.5863e+01|
|         352|  1.0461e-01|   -1.809482|    2.018059|    0.215651|  1.7449e+01|  1.7449e+01|  1.7449e+01|
|         353|  1.0456e-01|   -1.788802|    2.017113|    0.215213|  1.9194e+01|  1.9194e+01|  1.9194e+01|
|         354|  1.0451e-01|   -1.757447|    2.016535|    0.214990|  2.1114e+01|  2.1114e+01|  2.1114e+01|
|         355|  1.0445e-01|   -1.728943|    2.016247|    0.215192|  2.1114e+01|  2.1114e+01|  2.1114e+01|
|         356|  1.0440e-01|   -1.716982|    2.016539|    0.215746|  2.1114e+01|  2.1114e+01|  2.1114e+01|
|         357|  1.0435e-01|   -1.717135|    2.017402|    0.216666|  2.1114e+01|  2.1114e+01|  2.1114e+01|
|         358|  1.0430e-01|   -1.711208|    2.019034|    0.217917|  2.1114e+01|  2.1114e+01|  2.1114e+01|
|         359|  1.0424e-01|   -1.693878|    2.021163|    0.219681|  2.1114e+01|  2.1114e+01|  2.1114e+01|
|         360|  1.0419e-01|   -1.685497|    2.023770|    0.221716|  2.3225e+01|  2.3225e+01|  2.3225e+01|
|         361|  1.0414e-01|   -1.691237|    2.026979|    0.223795|  1.1613e+01|  1.1613e+01|  1.1613e+01|
|         362|  1.0409e-01|   -1.663137|    2.029400|    0.225283|  1.2774e+01|  1.2774e+01|  1.2774e+01|
|         363|  1.0404e-01|   -1.720797|    2.031565|    0.226704|  1.4051e+01|  1.4051e+01|  1.4051e+01|
|         364|  1.0429e-01|   -1.729305|    2.033757|    0.227891|  1.5456e+01|  1.5456e+01|  1.5456e+01|
|         365|  1.0482e-01|   -1.711703|    2.035909|    0.229256|  1.7002e+01|  1.7002e+01|  1.7002e+01|
|         366|  1.0529e-01|   -1.694272|    2.038162|    0.230447|  1.8702e+01|  1.8702e+01|  1.8702e+01|
|         367|  1.0571e-01|   -1.668466|    2.040290|    0.231803|  2.0572e+01|  2.0572e+01|  2.0572e+01|
|         368|  1.0568e-01|   -1.639867|    2.042294|    0.232734|  2.2630e+01|  2.2630e+01|  2.2630e+01|
|         369|  1.0564e-01|   -1.612346|    2.043928|    0.233592|  1.1315e+01|  1.1315e+01|  1.1315e+01|
|         370|  1.0558e-01|   -1.586351|    2.045004|    0.233852|  1.2446e+01|  1.2446e+01|  1.2446e+01|
|         371|  1.0554e-01|   -1.607241|    2.045813|    0.234070|  1.3691e+01|  1.3691e+01|  1.3691e+01|
|         372|  1.0549e-01|   -1.604174|    2.046402|    0.234120|  1.5060e+01|  1.5060e+01|  1.5060e+01|
|         373|  1.0544e-01|   -1.595228|    2.046450|    0.233836|  1.6566e+01|  1.6566e+01|  1.6566e+01|
|         374|  1.0538e-01|   -1.580075|    2.046149|    0.233455|  1.8223e+01|  1.8223e+01|  1.8223e+01|
|         375|  1.0534e-01|   -1.567432|    2.045669|    0.233220|  2.0045e+01|  2.0045e+01|  2.0045e+01|
|         376|  1.0529e-01|   -1.552798|    2.045272|    0.232779|  2.2049e+01|  2.2049e+01|  2.2049e+01|
|         377|  1.0524e-01|   -1.543014|    2.044638|    0.231959|  2.2049e+01|  2.2049e+01|  2.2049e+01|
|         378|  1.0520e-01|   -1.533072|    2.043889|    0.231522|  2.2049e+01|  2.4254e+01|  2.4254e+01|
|         379|  1.0515e-01|   -1.529961|    2.043337|    0.231199|  2.2049e+01|  2.4254e+01|  2.4254e+01|
|         380|  1.0537e-01|   -1.506689|    2.042493|    0.231007|  2.2049e+01|  2.4254e+01|  2.4254e+01|
|         381|  1.0576e-01|   -1.511196|    2.042133|    0.230918|  2.2049e+01|  2.4254e+01|  2.4254e+01|
|         382|  1.0596e-01|   -1.494951|    2.041963|    0.230969|  1.1025e+01|  1.2127e+01|  1.2127e+01|
|         383|  1.0593e-01|   -1.492013|    2.041892|    0.231181|  1.2127e+01|  1.3340e+01|  1.3340e+01|
|         384|  1.0587e-01|   -1.535250|    2.042012|    0.231463|  1.3340e+01|  1.4674e+01|  1.4674e+01|
|         385|  1.0582e-01|   -1.538212|    2.042371|    0.231796|  1.4674e+01|  1.6141e+01|  1.6141e+01|
|         386|  1.0578e-01|   -1.518089|    2.042624|    0.232148|  1.6141e+01|  1.7755e+01|  1.7755e+01|
|         387|  1.0573e-01|   -1.496497|    2.042665|    0.232571|  1.7755e+01|  1.9531e+01|  1.9531e+01|
|         388|  1.0568e-01|   -1.480913|    2.042593|    0.233146|  1.7755e+01|  2.1484e+01|  2.1484e+01|
|         389|  1.0563e-01|   -1.468524|    2.042365|    0.233656|  1.7755e+01|  2.1484e+01|  2.1484e+01|
|         390|  1.0558e-01|   -1.452880|    2.042188|    0.233904|  1.7755e+01|  2.1484e+01|  2.1484e+01|
|         391|  1.0553e-01|   -1.453428|    2.041582|    0.234065|  1.7755e+01|  2.1484e+01|  2.1484e+01|
|         392|  1.0548e-01|   -1.448148|    2.041187|    0.234281|  1.9531e+01|  2.3632e+01|  2.3632e+01|
|         393|  1.0560e-01|   -1.456979|    2.040361|    0.234485|  9.7655e+00|  1.1816e+01|  1.1816e+01|
|         394|  1.0600e-01|   -1.438524|    2.039738|    0.234666|  1.0742e+01|  1.2998e+01|  1.2997e+01|
|         395|  1.0603e-01|   -1.477690|    2.039415|    0.234966|  1.0742e+01|  1.4298e+01|  1.4297e+01|
|         396|  1.0598e-01|   -1.488472|    2.038982|    0.235053|  1.0742e+01|  1.5727e+01|  1.5727e+01|
|         397|  1.0593e-01|   -1.483011|    2.038252|    0.235207|  1.0742e+01|  1.7300e+01|  1.7299e+01|
|         398|  1.0589e-01|   -1.474994|    2.037452|    0.235386|  1.1816e+01|  1.9030e+01|  1.9029e+01|
|         399|  1.0584e-01|   -1.473089|    2.036868|    0.235927|  1.2998e+01|  2.0933e+01|  2.0932e+01|
|         400|  1.0580e-01|   -1.478393|    2.036746|    0.236682|  1.4298e+01|  2.3026e+01|  2.3025e+01|
|         401|  1.0575e-01|   -1.491508|    2.037421|    0.238133|  1.5727e+01|  2.5329e+01|  2.5328e+01|
|         402|  1.0570e-01|   -1.494515|    2.039818|    0.240568|  1.5727e+01|  2.5329e+01|  2.5328e+01|
|         403|  1.0566e-01|   -1.460027|    2.043864|    0.243913|  1.5727e+01|  2.5329e+01|  2.5328e+01|
|         404|  1.0562e-01|   -1.456522|    2.049792|    0.248050|  1.5727e+01|  2.5329e+01|  2.5328e+01|
|         405|  1.0558e-01|   -1.462994|    2.056936|    0.252607|  1.5727e+01|  2.7862e+01|  2.7860e+01|
|         406|  1.0577e-01|   -1.458380|    2.066412|    0.257975|  7.8637e+00|  1.3931e+01|  1.3930e+01|
|         407|  1.0629e-01|   -1.444867|    2.073626|    0.262073|  8.6500e+00|  1.5324e+01|  1.5323e+01|
|         408|  1.0641e-01|   -1.501167|    2.079829|    0.265477|  9.5151e+00|  1.6856e+01|  1.6855e+01|
|         409|  1.0635e-01|   -1.532054|    2.085864|    0.268885|  1.0467e+01|  1.8542e+01|  1.8541e+01|
|         410|  1.0630e-01|   -1.526591|    2.092335|    0.272202|  1.1513e+01|  2.0396e+01|  2.0395e+01|
|         411|  1.0625e-01|   -1.523944|    2.098491|    0.275713|  1.2665e+01|  2.2436e+01|  2.2434e+01|
|         412|  1.0620e-01|   -1.519477|    2.104243|    0.278822|  1.3931e+01|  2.4680e+01|  2.4677e+01|
|         413|  1.0615e-01|   -1.514206|    2.108860|    0.281615|  1.3931e+01|  2.4680e+01|  2.4677e+01|
|         414|  1.0610e-01|   -1.507859|    2.111932|    0.283368|  6.9655e+00|  1.2340e+01|  1.2338e+01|
|         415|  1.0606e-01|   -1.509291|    2.112919|    0.284082|  6.9655e+00|  1.3574e+01|  1.3572e+01|
|         416|  1.0601e-01|   -1.533371|    2.113374|    0.284265|  6.9655e+00|  1.4931e+01|  1.4929e+01|
|         417|  1.0596e-01|   -1.538578|    2.113047|    0.283901|  7.6620e+00|  1.6424e+01|  1.6422e+01|
|         418|  1.0601e-01|   -1.536111|    2.112211|    0.283174|  8.4282e+00|  1.8067e+01|  1.8064e+01|
|         419|  1.0634e-01|   -1.531764|    2.110527|    0.282039|  9.2711e+00|  1.9873e+01|  1.9871e+01|
|         420|  1.0665e-01|   -1.531066|    2.107941|    0.280393|  1.0198e+01|  2.1861e+01|  2.1857e+01|
|         421|  1.0661e-01|   -1.531684|    2.104874|    0.278060|  1.0198e+01|  2.1861e+01|  2.1857e+01|
|         422|  1.0655e-01|   -1.533546|    2.101188|    0.275480|  1.1218e+01|  2.4047e+01|  2.4042e+01|
|         423|  1.0650e-01|   -1.534096|    2.097604|    0.272609|  1.1218e+01|  2.4047e+01|  2.4042e+01|
|         424|  1.0646e-01|   -1.532089|    2.094129|    0.269597|  1.1218e+01|  2.4047e+01|  2.4042e+01|
|         425|  1.0641e-01|   -1.529652|    2.090601|    0.267011|  1.1218e+01|  2.4047e+01|  2.4042e+01|
|         426|  1.0636e-01|   -1.522801|    2.087464|    0.264729|  1.1218e+01|  2.4047e+01|  2.4042e+01|
|         427|  1.0631e-01|   -1.518887|    2.084900|    0.263019|  1.1218e+01|  2.4047e+01|  2.4042e+01|
|         428|  1.0626e-01|   -1.513027|    2.082796|    0.262291|  5.6090e+00|  1.2023e+01|  1.2021e+01|
|         429|  1.0621e-01|   -1.511613|    2.081317|    0.262157|  6.1699e+00|  1.3226e+01|  1.3223e+01|
|         430|  1.0617e-01|   -1.538509|    2.080459|    0.262346|  6.7869e+00|  1.4548e+01|  1.4545e+01|
|         431|  1.0612e-01|   -1.544138|    2.080121|    0.262828|  7.4656e+00|  1.6003e+01|  1.6000e+01|
|         432|  1.0607e-01|   -1.536997|    2.079773|    0.263637|  8.2121e+00|  1.7603e+01|  1.7600e+01|
|         433|  1.0602e-01|   -1.531292|    2.079450|    0.265150|  9.0333e+00|  1.9364e+01|  1.9359e+01|
|         434|  1.0597e-01|   -1.527478|    2.079123|    0.267162|  9.9367e+00|  2.1300e+01|  2.1295e+01|
|         435|  1.0593e-01|   -1.517429|    2.079109|    0.269772|  4.9683e+00|  1.0650e+01|  1.0648e+01|
|         436|  1.0616e-01|   -1.523099|    2.079020|    0.271701|  5.4652e+00|  1.1715e+01|  1.1712e+01|
|         437|  1.0647e-01|   -1.539246|    2.079387|    0.273454|  6.0117e+00|  1.2887e+01|  1.2884e+01|
|         438|  1.0657e-01|   -1.542545|    2.079760|    0.275189|  6.6129e+00|  1.4175e+01|  1.4172e+01|
|         439|  1.0651e-01|   -1.539730|    2.080095|    0.277182|  7.2741e+00|  1.5593e+01|  1.5589e+01|
|         440|  1.0647e-01|   -1.537493|    2.080341|    0.279345|  8.0016e+00|  1.7152e+01|  1.7148e+01|
|         441|  1.0642e-01|   -1.538172|    2.080883|    0.281779|  8.8017e+00|  1.8867e+01|  1.8862e+01|
|         442|  1.0637e-01|   -1.538429|    2.081439|    0.284301|  9.6819e+00|  2.0754e+01|  2.0748e+01|
|         443|  1.0632e-01|   -1.536215|    2.082236|    0.286792|  1.0650e+01|  2.2829e+01|  2.2821e+01|
|         444|  1.0628e-01|   -1.533590|    2.083347|    0.288923|  1.1715e+01|  2.5112e+01|  2.5101e+01|
|         445|  1.0623e-01|   -1.530752|    2.085131|    0.290693|  5.8575e+00|  1.2556e+01|  1.2550e+01|
|         446|  1.0619e-01|   -1.521765|    2.086620|    0.291539|  6.4433e+00|  1.3812e+01|  1.3804e+01|
|         447|  1.0614e-01|   -1.548296|    2.088129|    0.291892|  7.0876e+00|  1.5193e+01|  1.5184e+01|
|         448|  1.0609e-01|   -1.554800|    2.089902|    0.291919|  7.7964e+00|  1.6712e+01|  1.6702e+01|
|         449|  1.0605e-01|   -1.546790|    2.092093|    0.291639|  8.5760e+00|  1.8383e+01|  1.8371e+01|
|         450|  1.0600e-01|   -1.545327|    2.094826|    0.291044|  9.4336e+00|  2.0222e+01|  2.0206e+01|
|         451|  1.0596e-01|   -1.535924|    2.097848|    0.290025|  1.0377e+01|  2.2244e+01|  2.2224e+01|
|         452|  1.0627e-01|   -1.527092|    2.101393|    0.288391|  1.1415e+01|  2.4468e+01|  2.4444e+01|
|         453|  1.0659e-01|   -1.518439|    2.104639|    0.285839|  1.1415e+01|  2.4468e+01|  2.4444e+01|
|         454|  1.0691e-01|   -1.525861|    2.107354|    0.282304|  1.1415e+01|  2.4468e+01|  2.4444e+01|
|         455|  1.0687e-01|   -1.537793|    2.108506|    0.277676|  1.1415e+01|  2.4468e+01|  2.4444e+01|
|         456|  1.0682e-01|   -1.543635|    2.108675|    0.272316|  1.1415e+01|  2.4468e+01|  2.4444e+01|
|         457|  1.0678e-01|   -1.546484|    2.107671|    0.266857|  1.1415e+01|  2.4468e+01|  2.4444e+01|
|         458|  1.0673e-01|   -1.542469|    2.106032|    0.261884|  1.1415e+01|  2.4468e+01|  2.4444e+01|
|         459|  1.0668e-01|   -1.540564|    2.104726|    0.257698|  5.7073e+00|  1.2234e+01|  1.2222e+01|
|         460|  1.0664e-01|   -1.543934|    2.103002|    0.254660|  6.2781e+00|  1.3458e+01|  1.3444e+01|
|         461|  1.0660e-01|   -1.560479|    2.100865|    0.252342|  6.9059e+00|  1.4803e+01|  1.4787e+01|
|         462|  1.0655e-01|   -1.570863|    2.098831|    0.250403|  7.5965e+00|  1.6284e+01|  1.6266e+01|
|         463|  1.0651e-01|   -1.570575|    2.095834|    0.248212|  8.3561e+00|  1.7912e+01|  1.7892e+01|
|         464|  1.0646e-01|   -1.572257|    2.092498|    0.246088|  9.1917e+00|  1.9703e+01|  1.9680e+01|
|         465|  1.0642e-01|   -1.573594|    2.088237|    0.243965|  1.0111e+01|  2.1674e+01|  2.1648e+01|
|         466|  1.0643e-01|   -1.571673|    2.083068|    0.241639|  1.1122e+01|  2.3841e+01|  2.3812e+01|
|         467|  1.0639e-01|   -1.569993|    2.077054|    0.239552|  1.1122e+01|  2.3841e+01|  2.3812e+01|
|         468|  1.0634e-01|   -1.568655|    2.070541|    0.237646|  1.1122e+01|  2.3841e+01|  2.3812e+01|
|         469|  1.0652e-01|   -1.569580|    2.063654|    0.236230|  5.5610e+00|  1.1921e+01|  1.1906e+01|
|         470|  1.0687e-01|   -1.572041|    2.058336|    0.235089|  6.1171e+00|  1.3113e+01|  1.3096e+01|
|         471|  1.0723e-01|   -1.588947|    2.053996|    0.234361|  6.7288e+00|  1.4424e+01|  1.4406e+01|
|         472|  1.0753e-01|   -1.599110|    2.049693|    0.233639|  7.4017e+00|  1.5866e+01|  1.5847e+01|
|         473|  1.0756e-01|   -1.595755|    2.045120|    0.233492|  8.1419e+00|  1.7453e+01|  1.7431e+01|
|         474|  1.0751e-01|   -1.589197|    2.040552|    0.233991|  8.9561e+00|  1.9198e+01|  1.9174e+01|
|         475|  1.0746e-01|   -1.583292|    2.035702|    0.235227|  9.8517e+00|  2.1118e+01|  2.1092e+01|
|         476|  1.0741e-01|   -1.573203|    2.030949|    0.237146|  1.0837e+01|  2.3230e+01|  2.3201e+01|
|         477|  1.0737e-01|   -1.567946|    2.026580|    0.240204|  1.1921e+01|  2.5553e+01|  2.5521e+01|
|         478|  1.0732e-01|   -1.566522|    2.022839|    0.244455|  5.9603e+00|  1.2776e+01|  1.2760e+01|
|         479|  1.0728e-01|   -1.573486|    2.020851|    0.247858|  6.5563e+00|  1.4054e+01|  1.4037e+01|
|         480|  1.0723e-01|   -1.599763|    2.019789|    0.250824|  7.2119e+00|  1.5459e+01|  1.5440e+01|
|         481|  1.0719e-01|   -1.603831|    2.019361|    0.253928|  7.9331e+00|  1.7005e+01|  1.6984e+01|
|         482|  1.0715e-01|   -1.607164|    2.019086|    0.257472|  8.7264e+00|  1.8706e+01|  1.8683e+01|
|         483|  1.0710e-01|   -1.610177|    2.019378|    0.261460|  9.5990e+00|  2.0576e+01|  2.0551e+01|
|         484|  1.0705e-01|   -1.612545|    2.020239|    0.265736|  1.0559e+01|  2.2634e+01|  2.2606e+01|
|         485|  1.0711e-01|   -1.614589|    2.022253|    0.270387|  1.1615e+01|  2.4897e+01|  2.4867e+01|
|         486|  1.0739e-01|   -1.616491|    2.025431|    0.275153|  1.2776e+01|  2.7387e+01|  2.7353e+01|
|         487|  1.0766e-01|   -1.617052|    2.030417|    0.280089|  6.3882e+00|  1.3694e+01|  1.3677e+01|
|         488|  1.0763e-01|   -1.614214|    2.034596|    0.283401|  7.0270e+00|  1.5063e+01|  1.5044e+01|
|         489|  1.0758e-01|   -1.642489|    2.038450|    0.285911|  7.7297e+00|  1.6569e+01|  1.6549e+01|
|         490|  1.0753e-01|   -1.647938|    2.042348|    0.288072|  8.5026e+00|  1.8226e+01|  1.8204e+01|
|         491|  1.0748e-01|   -1.648464|    2.046720|    0.290072|  9.3529e+00|  2.0049e+01|  2.0024e+01|
|         492|  1.0744e-01|   -1.644197|    2.051437|    0.291940|  1.0288e+01|  2.2054e+01|  2.2026e+01|
|         493|  1.0739e-01|   -1.626769|    2.056650|    0.293644|  1.1317e+01|  2.4259e+01|  2.4229e+01|
|         494|  1.0735e-01|   -1.614584|    2.062152|    0.295300|  5.6585e+00|  1.2130e+01|  1.2114e+01|
|         495|  1.0730e-01|   -1.626886|    2.066114|    0.296362|  6.2244e+00|  1.3342e+01|  1.3326e+01|
|         496|  1.0726e-01|   -1.668674|    2.069417|    0.297142|  6.8468e+00|  1.4677e+01|  1.4659e+01|
|         497|  1.0722e-01|   -1.681541|    2.072595|    0.297743|  7.5315e+00|  1.6144e+01|  1.6124e+01|
|         498|  1.0731e-01|   -1.683754|    2.075611|    0.298205|  8.2846e+00|  1.7759e+01|  1.7737e+01|
|         499|  1.0759e-01|   -1.684121|    2.078529|    0.298608|  9.1131e+00|  1.9535e+01|  1.9510e+01|
|         500|  1.0770e-01|   -1.684435|    2.081290|    0.298755|  1.0024e+01|  2.1488e+01|  2.1462e+01|
+-----------------------------------------------------------------------+
|        File Writing Summary       |              Filename             |
+-----------------------------------------------------------------------+
|SU2 binary restart                 |restart_flow.dat                   |

Writing the forces breakdown file (forces_breakdown.dat).
|Paraview                           |flow.vtu                           |

Writing the forces breakdown file (forces_breakdown.dat).
|Paraview surface                   |surface_flow.vtu                   |

Writing the forces breakdown file (forces_breakdown.dat).
+-----------------------------------------------------------------------+
+-------------------------------------------------------------------------------------------------------+
|  Inner_Iter|   Time(sec)|    rms[Rho]|          CL|          CD|     Min CFL|     Max CFL|     Avg CFL|
+-------------------------------------------------------------------------------------------------------+
|         501|  1.0776e-01|   -1.682114|    2.083799|    0.298247|  5.0122e+00|  1.0744e+01|  1.0731e+01|
|         502|  1.0771e-01|   -1.676565|    2.085305|    0.297499|  5.5134e+00|  1.1819e+01|  1.1804e+01|
|         503|  1.0767e-01|   -1.690622|    2.086639|    0.296716|  6.0648e+00|  1.3000e+01|  1.2984e+01|
|         504|  1.0763e-01|   -1.693251|    2.087639|    0.295672|  6.6712e+00|  1.4300e+01|  1.4283e+01|
|         505|  1.0760e-01|   -1.689507|    2.088360|    0.294220|  7.3384e+00|  1.5730e+01|  1.5711e+01|
|         506|  1.0758e-01|   -1.685823|    2.088737|    0.292342|  8.0722e+00|  1.7303e+01|  1.7282e+01|
|         507|  1.0756e-01|   -1.676402|    2.088643|    0.290344|  8.8794e+00|  1.9034e+01|  1.9010e+01|
|         508|  1.0753e-01|   -1.672948|    2.088312|    0.287773|  9.7674e+00|  2.0937e+01|  2.0911e+01|
|         509|  1.0749e-01|   -1.667058|    2.087598|    0.284822|  1.0744e+01|  2.3031e+01|  2.3002e+01|
|         510|  1.0746e-01|   -1.656153|    2.086428|    0.281639|  5.3720e+00|  1.1515e+01|  1.1501e+01|
|         511|  1.0772e-01|   -1.632815|    2.085376|    0.279244|  5.9093e+00|  1.2667e+01|  1.2651e+01|
|         512|  1.0808e-01|   -1.650416|    2.084352|    0.277236|  6.5002e+00|  1.3934e+01|  1.3916e+01|
|         513|  1.0809e-01|   -1.649121|    2.083233|    0.275226|  7.1502e+00|  1.5327e+01|  1.5308e+01|
|         514|  1.0805e-01|   -1.642536|    2.081585|    0.273147|  7.8652e+00|  1.6860e+01|  1.6839e+01|
|         515|  1.0801e-01|   -1.634727|    2.079485|    0.270998|  8.6517e+00|  1.8546e+01|  1.8523e+01|
|         516|  1.0797e-01|   -1.626939|    2.076822|    0.269037|  9.5169e+00|  2.0400e+01|  2.0375e+01|
|         517|  1.0793e-01|   -1.617876|    2.073807|    0.267283|  4.7585e+00|  1.0200e+01|  1.0187e+01|
|         518|  1.0790e-01|   -1.605941|    2.071376|    0.266280|  5.2343e+00|  1.1220e+01|  1.1206e+01|
|         519|  1.0785e-01|   -1.634689|    2.069480|    0.265458|  5.7577e+00|  1.2342e+01|  1.2327e+01|
|         520|  1.0782e-01|   -1.645873|    2.067460|    0.264832|  6.3335e+00|  1.3576e+01|  1.3560e+01|
|         521|  1.0778e-01|   -1.644870|    2.065096|    0.264137|  6.9669e+00|  1.4934e+01|  1.4915e+01|
|         522|  1.0775e-01|   -1.639984|    2.061968|    0.263520|  7.6635e+00|  1.6427e+01|  1.6407e+01|
|         523|  1.0785e-01|   -1.633646|    2.058314|    0.262862|  8.4299e+00|  1.8070e+01|  1.8048e+01|
|         524|  1.0814e-01|   -1.623246|    2.053977|    0.262560|  9.2729e+00|  1.9877e+01|  1.9852e+01|
|         525|  1.0827e-01|   -1.615546|    2.049298|    0.262436|  1.0200e+01|  2.1865e+01|  2.1837e+01|
|         526|  1.0823e-01|   -1.603251|    2.044621|    0.262710|  1.0200e+01|  2.1865e+01|  2.1837e+01|
|         527|  1.0819e-01|   -1.593731|    2.040529|    0.263747|  1.0200e+01|  2.1865e+01|  2.1837e+01|
|         528|  1.0815e-01|   -1.583521|    2.037564|    0.265631|  1.1220e+01|  2.4051e+01|  2.4020e+01|
|         529|  1.0811e-01|   -1.579063|    2.036275|    0.268579|  5.6101e+00|  1.2026e+01|  1.2010e+01|
|         530|  1.0807e-01|   -1.563430|    2.036466|    0.271230|  6.1711e+00|  1.3228e+01|  1.3211e+01|
|         531|  1.0804e-01|   -1.589218|    2.037498|    0.273819|  6.7882e+00|  1.4551e+01|  1.4532e+01|
|         532|  1.0800e-01|   -1.584606|    2.039783|    0.276898|  6.7882e+00|  1.6006e+01|  1.5985e+01|
|         533|  1.0797e-01|   -1.577230|    2.043425|    0.280795|  7.4670e+00|  1.7607e+01|  1.7584e+01|
|         534|  1.0793e-01|   -1.561836|    2.048553|    0.285520|  8.2137e+00|  1.9368e+01|  1.9342e+01|
|         535|  1.0791e-01|   -1.539365|    2.055568|    0.291053|  9.0351e+00|  2.1304e+01|  2.1275e+01|
|         536|  1.0787e-01|   -1.519682|    2.064760|    0.297353|  9.9386e+00|  2.3435e+01|  2.3402e+01|
|         537|  1.0783e-01|   -1.517393|    2.075953|    0.304230|  1.0932e+01|  2.5778e+01|  2.5741e+01|
|         538|  1.0779e-01|   -1.519852|    2.088857|    0.311055|  5.4662e+00|  1.2889e+01|  1.2870e+01|
|         539|  1.0777e-01|   -1.509589|    2.098358|    0.315680|  6.0129e+00|  1.4178e+01|  1.4157e+01|
|         540|  1.0791e-01|   -1.546738|    2.106284|    0.319158|  6.6142e+00|  1.5596e+01|  1.5572e+01|
|         541|  1.0819e-01|   -1.549396|    2.113719|    0.322295|  7.2756e+00|  1.7155e+01|  1.7129e+01|
|         542|  1.0830e-01|   -1.541147|    2.121208|    0.325090|  8.0031e+00|  1.8871e+01|  1.8841e+01|
|         543|  1.0826e-01|   -1.524634|    2.128613|    0.327654|  8.8034e+00|  2.0758e+01|  2.0725e+01|
|         544|  1.0822e-01|   -1.514590|    2.136194|    0.329964|  9.6838e+00|  2.2834e+01|  2.2796e+01|
|         545|  1.0818e-01|   -1.508398|    2.143543|    0.331884|  1.0652e+01|  2.5117e+01|  2.5074e+01|
|         546|  1.0815e-01|   -1.503822|    2.150904|    0.333213|  5.3261e+00|  1.2559e+01|  1.2537e+01|
|         547|  1.0811e-01|   -1.490166|    2.155570|    0.333611|  5.8587e+00|  1.3814e+01|  1.3791e+01|
|         548|  1.0808e-01|   -1.515482|    2.159442|    0.333769|  6.4446e+00|  1.5196e+01|  1.5170e+01|
|         549|  1.0804e-01|   -1.522509|    2.162601|    0.333119|  7.0890e+00|  1.6716e+01|  1.6687e+01|
|         550|  1.0801e-01|   -1.517376|    2.165541|    0.331853|  7.7979e+00|  1.8387e+01|  1.8355e+01|
|         551|  1.0797e-01|   -1.507778|    2.167923|    0.329650|  8.5777e+00|  2.0226e+01|  2.0191e+01|
|         552|  1.0793e-01|   -1.501178|    2.169651|    0.326180|  9.4355e+00|  2.2248e+01|  2.2209e+01|
|         553|  1.0789e-01|   -1.491588|    2.170562|    0.321378|  1.0379e+01|  2.4473e+01|  2.4430e+01|
|         554|  1.0786e-01|   -1.483639|    2.170348|    0.315104|  5.1895e+00|  1.2237e+01|  1.2215e+01|
|         555|  1.0797e-01|   -1.475216|    2.169374|    0.310482|  5.7085e+00|  1.3460e+01|  1.3436e+01|
|         556|  1.0824e-01|   -1.506572|    2.168700|    0.306450|  6.2793e+00|  1.4806e+01|  1.4780e+01|
|         557|  1.0849e-01|   -1.510046|    2.167442|    0.302304|  6.9072e+00|  1.6287e+01|  1.6257e+01|
|         558|  1.0853e-01|   -1.501738|    2.165320|    0.297855|  7.5980e+00|  1.7916e+01|  1.7883e+01|
|         559|  1.0849e-01|   -1.486976|    2.162174|    0.293041|  8.3578e+00|  1.9707e+01|  1.9671e+01|
|         560|  1.0845e-01|   -1.476793|    2.158098|    0.288267|  9.1935e+00|  2.1678e+01|  2.1637e+01|
|         561|  1.0841e-01|   -1.463672|    2.152960|    0.283404|  1.0113e+01|  2.3846e+01|  2.3799e+01|
|         562|  1.0837e-01|   -1.460458|    2.146764|    0.278716|  1.1124e+01|  2.6230e+01|  2.6177e+01|
|         563|  1.0833e-01|   -1.440079|    2.139333|    0.274788|  5.5621e+00|  1.3115e+01|  1.3089e+01|
|         564|  1.0830e-01|   -1.424672|    2.133679|    0.272543|  2.7810e+00|  6.5576e+00|  6.5443e+00|
|         565|  1.0826e-01|   -1.464501|    2.130592|    0.271499|  1.3905e+00|  3.2788e+00|  3.2721e+00|
|         566|  1.0821e-01|   -1.483586|    2.129246|    0.271048|  1.0000e+00|  1.6394e+00|  1.6361e+00|
|         567|  1.0813e-01|   -1.490902|    2.128856|    0.270886|  1.0000e+00|  1.0000e+00|  1.0000e+00|
|         568|  1.0806e-01|   -1.494869|    2.128745|    0.270784|  1.0000e+00|  1.0000e+00|  1.0000e+00|
|         569|  1.0798e-01|   -1.496893|    2.128610|    0.270686|  1.0000e+00|  1.0000e+00|  1.0000e+00|
|         570|  1.0790e-01|   -1.498050|    2.128472|    0.270592|  1.1000e+00|  1.1000e+00|  1.1000e+00|
|         571|  1.0782e-01|   -1.498699|    2.128271|    0.270492|  1.2100e+00|  1.2100e+00|  1.2100e+00|
|         572|  1.0775e-01|   -1.499137|    2.128049|    0.270366|  1.3310e+00|  1.3310e+00|  1.3310e+00|
|         573|  1.0768e-01|   -1.499347|    2.127790|    0.270235|  1.4641e+00|  1.4641e+00|  1.4641e+00|
|         574|  1.0761e-01|   -1.499325|    2.127463|    0.270101|  1.6105e+00|  1.6105e+00|  1.6105e+00|
|         575|  1.0767e-01|   -1.499003|    2.127095|    0.269962|  1.7716e+00|  1.7716e+00|  1.7716e+00|
|         576|  1.0783e-01|   -1.498590|    2.126573|    0.269830|  1.9487e+00|  1.9487e+00|  1.9487e+00|
|         577|  1.0801e-01|   -1.498117|    2.125935|    0.269691|  2.1436e+00|  2.1436e+00|  2.1436e+00|
|         578|  1.0818e-01|   -1.497753|    2.125200|    0.269550|  2.3579e+00|  2.3579e+00|  2.3579e+00|
|         579|  1.0836e-01|   -1.496949|    2.124494|    0.269433|  2.5937e+00|  2.5937e+00|  2.5937e+00|
|         580|  1.0837e-01|   -1.496289|    2.123628|    0.269315|  2.8531e+00|  2.8531e+00|  2.8531e+00|
|         581|  1.0830e-01|   -1.495763|    2.122634|    0.269212|  3.1384e+00|  3.1384e+00|  3.1384e+00|
|         582|  1.0824e-01|   -1.494982|    2.121485|    0.269139|  3.4523e+00|  3.4523e+00|  3.4523e+00|
|         583|  1.0819e-01|   -1.494140|    2.120458|    0.269103|  3.7975e+00|  3.7975e+00|  3.7975e+00|
|         584|  1.0813e-01|   -1.493734|    2.119242|    0.269117|  4.1772e+00|  4.1772e+00|  4.1772e+00|
|         585|  1.0808e-01|   -1.493374|    2.118000|    0.269179|  4.5950e+00|  4.5950e+00|  4.5950e+00|
|         586|  1.0803e-01|   -1.492460|    2.116557|    0.269296|  5.0545e+00|  5.0545e+00|  5.0545e+00|
|         587|  1.0799e-01|   -1.491118|    2.115157|    0.269472|  5.5599e+00|  5.5599e+00|  5.5599e+00|
|         588|  1.0795e-01|   -1.489406|    2.113673|    0.269758|  6.1159e+00|  6.1159e+00|  6.1159e+00|
|         589|  1.0791e-01|   -1.487840|    2.112178|    0.270183|  6.7275e+00|  6.7275e+00|  6.7275e+00|
|         590|  1.0787e-01|   -1.486643|    2.110450|    0.270785|  7.4002e+00|  7.4002e+00|  7.4002e+00|
|         591|  1.0783e-01|   -1.485105|    2.108659|    0.271600|  7.4002e+00|  8.1403e+00|  8.1403e+00|
|         592|  1.0780e-01|   -1.485111|    2.106708|    0.272675|  8.1403e+00|  8.9543e+00|  8.9543e+00|
|         593|  1.0801e-01|   -1.485394|    2.104833|    0.274068|  8.1403e+00|  9.8497e+00|  9.8496e+00|
|         594|  1.0824e-01|   -1.484694|    2.102937|    0.275842|  8.9543e+00|  1.0835e+01|  1.0834e+01|
|         595|  1.0831e-01|   -1.486062|    2.101102|    0.277998|  9.8497e+00|  1.1918e+01|  1.1917e+01|
|         596|  1.0826e-01|   -1.488239|    2.099049|    0.280462|  1.0835e+01|  1.3110e+01|  1.3108e+01|
|         597|  1.0822e-01|   -1.488116|    2.096825|    0.283102|  1.0835e+01|  1.4421e+01|  1.4418e+01|
|         598|  1.0819e-01|   -1.489375|    2.094409|    0.285860|  1.1918e+01|  1.5863e+01|  1.5859e+01|
|         599|  1.0815e-01|   -1.491565|    2.091743|    0.288650|  1.3110e+01|  1.7449e+01|  1.7442e+01|
|         600|  1.0811e-01|   -1.492074|    2.088728|    0.291291|  1.4421e+01|  1.9194e+01|  1.9184e+01|
|         601|  1.0808e-01|   -1.489878|    2.085385|    0.293807|  1.4421e+01|  2.1114e+01|  2.1098e+01|
|         602|  1.0804e-01|   -1.487919|    2.081928|    0.296119|  1.5863e+01|  2.3225e+01|  2.3203e+01|
|         603|  1.0800e-01|   -1.485876|    2.078544|    0.298468|  1.5863e+01|  2.3225e+01|  2.3203e+01|
|         604|  1.0797e-01|   -1.480938|    2.076088|    0.300760|  1.7449e+01|  2.5548e+01|  2.5516e+01|
|         605|  1.0801e-01|   -1.477215|    2.075413|    0.303617|  8.7247e+00|  1.2774e+01|  1.2758e+01|
|         606|  1.0823e-01|   -1.465066|    2.075943|    0.305768|  9.5972e+00|  1.4051e+01|  1.4032e+01|
|         607|  1.0842e-01|   -1.500942|    2.077073|    0.307823|  1.0557e+01|  1.5456e+01|  1.5432e+01|
|         608|  1.0838e-01|   -1.503457|    2.079466|    0.309849|  1.1613e+01|  1.7002e+01|  1.6972e+01|
|         609|  1.0834e-01|   -1.498346|    2.083112|    0.312311|  1.2774e+01|  1.8702e+01|  1.8665e+01|
|         610|  1.0830e-01|   -1.490380|    2.088531|    0.315001|  1.4051e+01|  2.0572e+01|  2.0528e+01|
|         611|  1.0826e-01|   -1.480323|    2.095962|    0.318170|  1.5456e+01|  2.2630e+01|  2.2577e+01|
|         612|  1.0823e-01|   -1.482926|    2.105596|    0.321164|  1.7002e+01|  2.4893e+01|  2.4833e+01|
|         613|  1.0819e-01|   -1.479850|    2.117031|    0.324182|  1.8702e+01|  2.7382e+01|  2.7316e+01|
|         614|  1.0815e-01|   -1.487217|    2.129473|    0.325949|  9.3511e+00|  1.3691e+01|  1.3658e+01|
|         615|  1.0812e-01|   -1.482059|    2.137949|    0.326751|  1.0286e+01|  1.5060e+01|  1.5023e+01|
|         616|  1.0808e-01|   -1.498757|    2.144617|    0.326730|  1.0286e+01|  1.6566e+01|  1.6526e+01|
|         617|  1.0804e-01|   -1.499724|    2.150590|    0.325856|  1.1315e+01|  1.8223e+01|  1.8178e+01|
|         618|  1.0801e-01|   -1.495280|    2.156114|    0.324879|  1.1315e+01|  2.0045e+01|  1.9996e+01|
|         619|  1.0799e-01|   -1.491755|    2.160819|    0.322787|  6.2231e+00|  2.2049e+01|  2.1994e+01|
|         620|  1.0798e-01|   -1.486121|    2.164623|    0.319974|  6.2231e+00|  2.4254e+01|  2.4193e+01|
|         621|  1.0814e-01|   -1.485719|    2.166693|    0.316471|  6.8455e+00|  2.6680e+01|  2.6613e+01|
|         622|  1.0836e-01|   -1.486291|    2.167057|    0.312090|  6.8455e+00|  2.6680e+01|  2.6613e+01|
|         623|  1.0844e-01|   -1.483141|    2.165326|    0.307403|  6.8455e+00|  2.6680e+01|  2.6613e+01|
|         624|  1.0841e-01|   -1.488976|    2.161586|    0.302211|  6.8455e+00|  2.6680e+01|  2.6613e+01|
|         625|  1.0836e-01|   -1.492646|    2.155913|    0.296747|  3.4227e+00|  1.3340e+01|  1.3306e+01|
|         626|  1.0833e-01|   -1.493693|    2.151078|    0.292540|  3.7650e+00|  1.4674e+01|  1.4636e+01|
|         627|  1.0829e-01|   -1.522606|    2.146543|    0.288833|  4.1415e+00|  1.6141e+01|  1.6098e+01|
|         628|  1.0826e-01|   -1.530989|    2.141269|    0.284928|  4.5557e+00|  1.7755e+01|  1.7707e+01|
[...]
|        3999|  1.1231e-01|   -1.507992|    2.203507|    0.400519|  2.5942e+00|  1.6284e+01|  1.6229e+01|
|        4000|  1.1231e-01|   -1.512463|    2.209501|    0.401415|  2.8537e+00|  1.7912e+01|  1.7850e+01|
+-----------------------------------------------------------------------+
|        File Writing Summary       |              Filename             |
+-----------------------------------------------------------------------+
|SU2 binary restart                 |restart_flow.dat                   |

Writing the forces breakdown file (forces_breakdown.dat).
|Paraview                           |flow.vtu                           |

Writing the forces breakdown file (forces_breakdown.dat).
|Paraview surface                   |surface_flow.vtu                   |

Writing the forces breakdown file (forces_breakdown.dat).
+-----------------------------------------------------------------------+
+-------------------------------------------------------------------------------------------------------+
|  Inner_Iter|   Time(sec)|    rms[Rho]|          CL|          CD|     Min CFL|     Max CFL|     Avg CFL|
+-------------------------------------------------------------------------------------------------------+
|        4001|  1.1231e-01|   -1.507330|    2.214988|    0.401483|  3.1390e+00|  1.9703e+01|  1.9633e+01|
|        4002|  1.1231e-01|   -1.504433|    2.219951|    0.400233|  3.4529e+00|  2.1674e+01|  2.1594e+01|
|        4003|  1.1230e-01|   -1.499472|    2.223699|    0.397097|  3.4529e+00|  2.1674e+01|  2.1594e+01|
|        4004|  1.1229e-01|   -1.492788|    2.226213|    0.391734|  3.4529e+00|  2.1674e+01|  2.1594e+01|
|        4005|  1.1229e-01|   -1.489852|    2.227410|    0.384959|  3.4529e+00|  2.1674e+01|  2.1594e+01|
|        4006|  1.1228e-01|   -1.483605|    2.228079|    0.376755|  3.7982e+00|  2.3841e+01|  2.3751e+01|
|        4007|  1.1227e-01|   -1.481706|    2.227957|    0.367463|  1.8991e+00|  1.1921e+01|  1.1875e+01|
|        4008|  1.1227e-01|   -1.468037|    2.227278|    0.359822|  2.0890e+00|  1.3113e+01|  1.3062e+01|
|        4009|  1.1226e-01|   -1.493938|    2.227500|    0.353643|  1.0445e+00|  6.5563e+00|  6.5312e+00|
|        4010|  1.1225e-01|   -1.499464|    2.227286|    0.349709|  1.0000e+00|  3.2781e+00|  3.2656e+00|
|        4011|  1.1224e-01|   -1.514958|    2.227402|    0.347619|  1.0000e+00|  1.6391e+00|  1.6335e+00|
|        4012|  1.1223e-01|   -1.522385|    2.227683|    0.346505|  1.1000e+00|  1.8030e+00|  1.7969e+00|
|        4013|  1.1222e-01|   -1.525476|    2.228004|    0.345487|  1.2100e+00|  1.9833e+00|  1.9765e+00|
|        4014|  1.1221e-01|   -1.527418|    2.228108|    0.344287|  1.3310e+00|  2.1816e+00|  2.1742e+00|
|        4015|  1.1220e-01|   -1.528963|    2.228254|    0.343296|  1.4641e+00|  2.3998e+00|  2.3916e+00|
|        4016|  1.1219e-01|   -1.529994|    2.228079|    0.342049|  1.6105e+00|  2.6397e+00|  2.6308e+00|
|        4017|  1.1218e-01|   -1.530348|    2.227980|    0.341004|  1.7716e+00|  2.9037e+00|  2.8938e+00|
|        4018|  1.1217e-01|   -1.530196|    2.227630|    0.339678|  1.9487e+00|  3.1941e+00|  3.1832e+00|
|        4019|  1.1216e-01|   -1.529551|    2.227540|    0.338466|  2.1436e+00|  3.5135e+00|  3.5016e+00|
|        4020|  1.1216e-01|   -1.528173|    2.227161|    0.336993|  2.3579e+00|  3.8648e+00|  3.8517e+00|
|        4021|  1.1215e-01|   -1.526630|    2.226804|    0.335470|  2.5937e+00|  4.2513e+00|  4.2369e+00|
|        4022|  1.1214e-01|   -1.524915|    2.226400|    0.333747|  2.8531e+00|  4.6765e+00|  4.6606e+00|
|        4023|  1.1213e-01|   -1.523320|    2.226081|    0.331904|  3.1384e+00|  5.1441e+00|  5.1266e+00|
|        4024|  1.1212e-01|   -1.520282|    2.225682|    0.329896|  3.4523e+00|  5.6585e+00|  5.6393e+00|
|        4025|  1.1212e-01|   -1.517594|    2.225137|    0.327600|  3.7975e+00|  6.2244e+00|  6.2032e+00|
|        4026|  1.1211e-01|   -1.514792|    2.224550|    0.325347|  4.1772e+00|  6.8468e+00|  6.8235e+00|
|        4027|  1.1212e-01|   -1.510949|    2.223878|    0.322775|  4.5950e+00|  7.5315e+00|  7.5059e+00|
|        4028|  1.1216e-01|   -1.507395|    2.223381|    0.320364|  5.0545e+00|  8.2846e+00|  8.2565e+00|
|        4029|  1.1219e-01|   -1.504278|    2.222537|    0.317727|  5.5599e+00|  9.1131e+00|  9.0821e+00|
|        4030|  1.1222e-01|   -1.497502|    2.221233|    0.314972|  6.1159e+00|  1.0024e+01|  9.9903e+00|
|        4031|  1.1226e-01|   -1.492759|    2.219861|    0.312357|  6.7275e+00|  1.1027e+01|  1.0989e+01|
|        4032|  1.1230e-01|   -1.486461|    2.218199|    0.309829|  7.4002e+00|  1.2130e+01|  1.2088e+01|
|        4033|  1.1233e-01|   -1.481251|    2.215989|    0.307295|  8.1403e+00|  1.3342e+01|  1.3297e+01|
|        4034|  1.1237e-01|   -1.476509|    2.213342|    0.305152|  8.9543e+00|  1.4677e+01|  1.4627e+01|
|        4035|  1.1240e-01|   -1.467046|    2.209938|    0.303389|  9.8497e+00|  1.6144e+01|  1.6090e+01|
|        4036|  1.1243e-01|   -1.463762|    2.205404|    0.302159|  1.0835e+01|  1.7759e+01|  1.7698e+01|
|        4037|  1.1244e-01|   -1.456581|    2.199734|    0.301450|  1.1918e+01|  1.9535e+01|  1.9468e+01|
|        4038|  1.1243e-01|   -1.448569|    2.192582|    0.301310|  1.3110e+01|  2.1488e+01|  2.1415e+01|
|        4039|  1.1242e-01|   -1.441573|    2.184218|    0.301734|  6.5550e+00|  1.0744e+01|  1.0707e+01|
|        4040|  1.1241e-01|   -1.438695|    2.177779|    0.302300|  7.2105e+00|  1.1819e+01|  1.1778e+01|
|        4041|  1.1241e-01|   -1.456963|    2.172577|    0.303071|  7.9315e+00|  1.3000e+01|  1.2956e+01|
|        4042|  1.1240e-01|   -1.459761|    2.167338|    0.304129|  8.7247e+00|  1.4300e+01|  1.4252e+01|
|        4043|  1.1239e-01|   -1.456366|    2.161932|    0.305594|  9.5972e+00|  1.5730e+01|  1.5677e+01|
|        4044|  1.1239e-01|   -1.458912|    2.156095|    0.307687|  9.7674e+00|  1.7303e+01|  1.7244e+01|
|        4045|  1.1238e-01|   -1.460467|    2.149870|    0.310421|  1.0744e+01|  1.9034e+01|  1.8967e+01|
|        4046|  1.1237e-01|   -1.464374|    2.143091|    0.313735|  1.0744e+01|  2.0937e+01|  2.0862e+01|
|        4047|  1.1237e-01|   -1.465027|    2.136149|    0.317531|  1.0744e+01|  2.3031e+01|  2.2946e+01|
|        4048|  1.1236e-01|   -1.462643|    2.129049|    0.321819|  1.0744e+01|  2.3031e+01|  2.2946e+01|
|        4049|  1.1236e-01|   -1.456556|    2.122295|    0.326193|  1.0744e+01|  2.3031e+01|  2.2946e+01|
|        4050|  1.1235e-01|   -1.455679|    2.116054|    0.330468|  1.0744e+01|  2.3031e+01|  2.2946e+01|
|        4051|  1.1234e-01|   -1.456121|    2.110899|    0.334858|  1.0744e+01|  2.3031e+01|  2.2946e+01|
|        4052|  1.1234e-01|   -1.460117|    2.107093|    0.339161|  1.1819e+01|  2.5334e+01|  2.5236e+01|
|        4053|  1.1233e-01|   -1.452805|    2.105409|    0.343725|  5.9093e+00|  1.2667e+01|  1.2618e+01|
|        4054|  1.1232e-01|   -1.438048|    2.105256|    0.347331|  6.5002e+00|  1.3934e+01|  1.3878e+01|
|        4055|  1.1232e-01|   -1.480073|    2.106190|    0.350248|  7.1502e+00|  1.5327e+01|  1.5264e+01|
|        4056|  1.1231e-01|   -1.483110|    2.108768|    0.353253|  7.8652e+00|  1.6860e+01|  1.6788e+01|
|        4057|  1.1230e-01|   -1.475822|    2.113205|    0.356812|  7.8652e+00|  1.8546e+01|  1.8463e+01|
|        4058|  1.1230e-01|   -1.470481|    2.119830|    0.361135|  7.8652e+00|  2.0400e+01|  2.0306e+01|
|        4059|  1.1229e-01|   -1.474961|    2.129584|    0.366115|  8.6517e+00|  2.2440e+01|  2.2332e+01|
|        4060|  1.1228e-01|   -1.469576|    2.142562|    0.371661|  9.5169e+00|  2.4684e+01|  2.4560e+01|
|        4061|  1.1228e-01|   -1.460691|    2.158587|    0.376924|  1.0469e+01|  2.7153e+01|  2.7009e+01|
|        4062|  1.1227e-01|   -1.456590|    2.176559|    0.381417|  1.0469e+01|  2.7153e+01|  2.7009e+01|
|        4063|  1.1226e-01|   -1.447954|    2.193254|    0.383763|  5.2343e+00|  1.3576e+01|  1.3504e+01|
|        4064|  1.1226e-01|   -1.444641|    2.203729|    0.383913|  5.7577e+00|  1.4934e+01|  1.4853e+01|
|        4065|  1.1225e-01|   -1.469558|    2.211395|    0.382997|  6.3335e+00|  1.6427e+01|  1.6335e+01|
|        4066|  1.1225e-01|   -1.475774|    2.217620|    0.381141|  6.9669e+00|  1.8070e+01|  1.7966e+01|
|        4067|  1.1229e-01|   -1.471905|    2.222613|    0.378008|  7.6635e+00|  1.9877e+01|  1.9759e+01|
|        4068|  1.1232e-01|   -1.467566|    2.225995|    0.373457|  8.4299e+00|  2.1865e+01|  2.1732e+01|
|        4069|  1.1235e-01|   -1.459859|    2.227767|    0.367388|  9.2729e+00|  2.4051e+01|  2.3900e+01|
|        4070|  1.1238e-01|   -1.451097|    2.227567|    0.359860|  1.0200e+01|  2.6457e+01|  2.6286e+01|
|        4071|  1.1242e-01|   -1.442423|    2.226199|    0.351328|  5.1001e+00|  1.3228e+01|  1.3143e+01|
|        4072|  1.1245e-01|   -1.429271|    2.224162|    0.344757|  5.6101e+00|  1.4551e+01|  1.4456e+01|
|        4073|  1.1248e-01|   -1.467497|    2.222936|    0.339809|  6.1711e+00|  1.6006e+01|  1.5900e+01|
|        4074|  1.1251e-01|   -1.468873|    2.221962|    0.335704|  6.7882e+00|  1.7607e+01|  1.7488e+01|
|        4075|  1.1255e-01|   -1.463117|    2.221041|    0.332278|  3.3941e+00|  8.8034e+00|  8.7439e+00|
|        4076|  1.1257e-01|   -1.454324|    2.220210|    0.330367|  3.7335e+00|  9.6838e+00|  9.6178e+00|
|        4077|  1.1256e-01|   -1.478699|    2.220002|    0.329161|  1.8668e+00|  4.8419e+00|  4.8089e+00|
|        4078|  1.1255e-01|   -1.484907|    2.220070|    0.328570|  2.0534e+00|  5.3261e+00|  5.2898e+00|
|        4079|  1.1254e-01|   -1.494567|    2.220576|    0.328139|  2.2588e+00|  5.8587e+00|  5.8188e+00|
|        4080|  1.1254e-01|   -1.498333|    2.221087|    0.327801|  2.4847e+00|  6.4446e+00|  6.4006e+00|
|        4081|  1.1253e-01|   -1.498661|    2.221249|    0.327451|  1.2423e+00|  3.2223e+00|  3.2003e+00|
|        4082|  1.1252e-01|   -1.497068|    2.221072|    0.327249|  1.0000e+00|  1.6111e+00|  1.6005e+00|
|        4083|  1.1251e-01|   -1.502598|    2.221157|    0.327159|  1.0000e+00|  1.0000e+00|  1.0000e+00|
|        4084|  1.1250e-01|   -1.506581|    2.221183|    0.327099|  1.0000e+00|  1.0000e+00|  1.0000e+00|
|        4085|  1.1249e-01|   -1.508641|    2.221271|    0.327037|  1.0000e+00|  1.0000e+00|  1.0000e+00|
|        4086|  1.1247e-01|   -1.510080|    2.221379|    0.326988|  1.0000e+00|  1.0000e+00|  1.0000e+00|
|        4087|  1.1246e-01|   -1.511006|    2.221469|    0.326944|  1.0000e+00|  1.0000e+00|  1.0000e+00|
|        4088|  1.1245e-01|   -1.511524|    2.221600|    0.326907|  1.0000e+00|  1.0000e+00|  1.0000e+00|
|        4089|  1.1243e-01|   -1.511775|    2.221662|    0.326869|  1.0000e+00|  1.0000e+00|  1.0000e+00|
|        4090|  1.1242e-01|   -1.511836|    2.221750|    0.326838|  1.0000e+00|  1.0000e+00|  1.0000e+00|
|        4091|  1.1241e-01|   -1.511775|    2.221799|    0.326807|  1.0000e+00|  1.0000e+00|  1.0000e+00|
|        4092|  1.1240e-01|   -1.511653|    2.221863|    0.326781|  1.0000e+00|  1.0000e+00|  1.0000e+00|
|        4093|  1.1238e-01|   -1.511630|    2.221881|    0.326752|  1.0000e+00|  1.0000e+00|  1.0000e+00|
|        4094|  1.1237e-01|   -1.511629|    2.221946|    0.326731|  1.0000e+00|  1.0000e+00|  1.0000e+00|
|        4095|  1.1236e-01|   -1.511451|    2.221961|    0.326704|  1.1000e+00|  1.1000e+00|  1.1000e+00|
|        4096|  1.1235e-01|   -1.511245|    2.221983|    0.326679|  1.2100e+00|  1.2100e+00|  1.2100e+00|
|        4097|  1.1234e-01|   -1.510925|    2.221947|    0.326647|  1.3310e+00|  1.3310e+00|  1.3310e+00|
|        4098|  1.1233e-01|   -1.510679|    2.221947|    0.326619|  1.4641e+00|  1.4641e+00|  1.4641e+00|
|        4099|  1.1231e-01|   -1.510054|    2.221918|    0.326593|  1.6105e+00|  1.6105e+00|  1.6105e+00|
|        4100|  1.1230e-01|   -1.509322|    2.221885|    0.326550|  1.7716e+00|  1.7716e+00|  1.7716e+00|
|        4101|  1.1229e-01|   -1.508351|    2.221835|    0.326490|  1.9487e+00|  1.9487e+00|  1.9487e+00|
|        4102|  1.1228e-01|   -1.507331|    2.221822|    0.326453|  2.1436e+00|  2.1436e+00|  2.1436e+00|
|        4103|  1.1227e-01|   -1.506336|    2.221755|    0.326424|  2.3579e+00|  2.3579e+00|  2.3579e+00|
|        4104|  1.1226e-01|   -1.505522|    2.221595|    0.326396|  2.5937e+00|  2.5937e+00|  2.5937e+00|
|        4105|  1.1225e-01|   -1.504895|    2.221370|    0.326326|  2.8531e+00|  2.8531e+00|  2.8531e+00|
|        4106|  1.1224e-01|   -1.504759|    2.221200|    0.326250|  3.1384e+00|  3.1384e+00|  3.1384e+00|
|        4107|  1.1223e-01|   -1.504198|    2.221002|    0.326185|  3.4523e+00|  3.4523e+00|  3.4523e+00|
|        4108|  1.1222e-01|   -1.503253|    2.220707|    0.326172|  3.7975e+00|  3.7975e+00|  3.7975e+00|
|        4109|  1.1222e-01|   -1.501526|    2.220293|    0.326213|  4.1772e+00|  4.1772e+00|  4.1772e+00|
|        4110|  1.1221e-01|   -1.495363|    2.219955|    0.326248|  4.5950e+00|  4.5950e+00|  4.5950e+00|
|        4111|  1.1223e-01|   -1.499527|    2.219675|    0.326261|  5.0545e+00|  5.0545e+00|  5.0545e+00|
|        4112|  1.1227e-01|   -1.496878|    2.219302|    0.326275|  5.5599e+00|  5.5599e+00|  5.5599e+00|
|        4113|  1.1231e-01|   -1.495326|    2.218644|    0.326282|  6.1159e+00|  6.1159e+00|  6.1159e+00|
|        4114|  1.1234e-01|   -1.494591|    2.217885|    0.326246|  6.1159e+00|  6.7275e+00|  6.7275e+00|
|        4115|  1.1238e-01|   -1.492102|    2.216703|    0.326117|  6.7275e+00|  7.4002e+00|  7.4002e+00|
|        4116|  1.1241e-01|   -1.488711|    2.215182|    0.325854|  6.7275e+00|  8.1403e+00|  8.1402e+00|
|        4117|  1.1244e-01|   -1.483399|    2.213195|    0.325468|  7.4002e+00|  8.9543e+00|  8.9541e+00|
|        4118|  1.1247e-01|   -1.479765|    2.211001|    0.324946|  8.1403e+00|  9.8497e+00|  9.8495e+00|
|        4119|  1.1251e-01|   -1.474567|    2.208257|    0.324401|  8.9543e+00|  1.0835e+01|  1.0834e+01|
|        4120|  1.1252e-01|   -1.468635|    2.204831|    0.323837|  9.8497e+00|  1.1918e+01|  1.1918e+01|
|        4121|  1.1251e-01|   -1.461787|    2.200817|    0.323327|  1.0835e+01|  1.3110e+01|  1.3109e+01|
|        4122|  1.1250e-01|   -1.459820|    2.196432|    0.322701|  1.0835e+01|  1.4421e+01|  1.4420e+01|
|        4123|  1.1249e-01|   -1.451789|    2.191565|    0.322383|  1.1918e+01|  1.5863e+01|  1.5861e+01|
|        4124|  1.1249e-01|   -1.443172|    2.186388|    0.322523|  1.1918e+01|  1.7449e+01|  1.7447e+01|
|        4125|  1.1248e-01|   -1.441339|    2.180850|    0.323270|  1.3110e+01|  1.9194e+01|  1.9190e+01|
|        4126|  1.1247e-01|   -1.442543|    2.175259|    0.324743|  1.4421e+01|  2.1114e+01|  2.1107e+01|
|        4127|  1.1247e-01|   -1.445742|    2.169689|    0.327155|  1.4421e+01|  2.1114e+01|  2.1107e+01|
|        4128|  1.1246e-01|   -1.450979|    2.164807|    0.330551|  1.4421e+01|  2.1114e+01|  2.1107e+01|
|        4129|  1.1245e-01|   -1.468143|    2.160795|    0.334612|  1.4421e+01|  2.1114e+01|  2.1107e+01|
|        4130|  1.1245e-01|   -1.481382|    2.157454|    0.339221|  1.4421e+01|  2.1114e+01|  2.1107e+01|
|        4131|  1.1244e-01|   -1.486366|    2.154874|    0.344019|  1.4421e+01|  2.1114e+01|  2.1107e+01|
|        4132|  1.1243e-01|   -1.498471|    2.153061|    0.348980|  1.5863e+01|  2.3225e+01|  2.3215e+01|
|        4133|  1.1243e-01|   -1.508747|    2.151811|    0.354199|  1.5863e+01|  2.3225e+01|  2.3215e+01|
|        4134|  1.1242e-01|   -1.510225|    2.151419|    0.359731|  1.5863e+01|  2.3225e+01|  2.3215e+01|
|        4135|  1.1241e-01|   -1.519211|    2.151968|    0.365636|  1.5863e+01|  2.3225e+01|  2.3215e+01|
|        4136|  1.1241e-01|   -1.527452|    2.153611|    0.372224|  1.5863e+01|  2.3225e+01|  2.3215e+01|
|        4137|  1.1240e-01|   -1.533816|    2.156944|    0.379352|  1.7449e+01|  2.5548e+01|  2.5530e+01|
|        4138|  1.1239e-01|   -1.535738|    2.162784|    0.387803|  8.7247e+00|  1.2774e+01|  1.2765e+01|
|        4139|  1.1239e-01|   -1.525460|    2.167929|    0.393844|  9.5972e+00|  1.4051e+01|  1.4039e+01|
|        4140|  1.1238e-01|   -1.560444|    2.172849|    0.398917|  9.5972e+00|  1.5456e+01|  1.5441e+01|
|        4141|  1.1237e-01|   -1.558376|    2.178738|    0.403762|  1.0557e+01|  1.7002e+01|  1.6983e+01|
|        4142|  1.1237e-01|   -1.544987|    2.185694|    0.408973|  1.0557e+01|  1.8702e+01|  1.8678e+01|
|        4143|  1.1236e-01|   -1.526448|    2.194603|    0.414788|  1.0557e+01|  2.0572e+01|  2.0543e+01|
|        4144|  1.1236e-01|   -1.517216|    2.205394|    0.421052|  7.7282e+00|  2.2630e+01|  2.2594e+01|
|        4145|  1.1235e-01|   -1.505396|    2.217869|    0.426572|  7.7282e+00|  2.4893e+01|  2.4851e+01|
|        4146|  1.1234e-01|   -1.511950|    2.230765|    0.430080|  7.7282e+00|  2.4893e+01|  2.4851e+01|
|        4147|  1.1234e-01|   -1.498502|    2.241655|    0.429305|  7.7282e+00|  2.4893e+01|  2.4851e+01|
|        4148|  1.1233e-01|   -1.497740|    2.249833|    0.424626|  3.8641e+00|  1.2446e+01|  1.2425e+01|
|        4149|  1.1233e-01|   -1.494912|    2.254004|    0.419047|  1.9320e+00|  6.2231e+00|  6.2127e+00|
|        4150|  1.1234e-01|   -1.508717|    2.255220|    0.414721|  1.0000e+00|  3.1116e+00|  3.1063e+00|
|        4151|  1.1238e-01|   -1.520945|    2.256342|    0.412772|  1.0000e+00|  1.5558e+00|  1.5532e+00|
|        4152|  1.1241e-01|   -1.526987|    2.256942|    0.411541|  1.0000e+00|  1.0000e+00|  1.0000e+00|
|        4153|  1.1244e-01|   -1.529423|    2.257412|    0.410887|  1.0000e+00|  1.0000e+00|  1.0000e+00|
|        4154|  1.1247e-01|   -1.530478|    2.257761|    0.410221|  1.1000e+00|  1.1000e+00|  1.1000e+00|
|        4155|  1.1250e-01|   -1.531063|    2.258069|    0.409538|  1.2100e+00|  1.2100e+00|  1.2100e+00|
|        4156|  1.1252e-01|   -1.531350|    2.258311|    0.408831|  1.3310e+00|  1.3310e+00|  1.3310e+00|
|        4157|  1.1255e-01|   -1.531321|    2.258538|    0.408099|  1.4641e+00|  1.4641e+00|  1.4641e+00|
|        4158|  1.1257e-01|   -1.531060|    2.258745|    0.407330|  1.6105e+00|  1.6105e+00|  1.6105e+00|
|        4159|  1.1259e-01|   -1.530547|    2.258921|    0.406498|  1.7716e+00|  1.7716e+00|  1.7716e+00|
|        4160|  1.1261e-01|   -1.529825|    2.258973|    0.405576|  1.9487e+00|  1.9487e+00|  1.9487e+00|
|        4161|  1.1262e-01|   -1.528854|    2.258935|    0.404551|  2.1436e+00|  2.1436e+00|  2.1436e+00|
|        4162|  1.1261e-01|   -1.527636|    2.258886|    0.403422|  2.3579e+00|  2.3579e+00|  2.3579e+00|
|        4163|  1.1260e-01|   -1.526263|    2.258831|    0.402160|  2.5937e+00|  2.5937e+00|  2.5937e+00|
|        4164|  1.1259e-01|   -1.524716|    2.258585|    0.400716|  2.8531e+00|  2.8531e+00|  2.8531e+00|
|        4165|  1.1258e-01|   -1.522799|    2.258359|    0.399100|  3.1384e+00|  3.1384e+00|  3.1384e+00|
|        4166|  1.1257e-01|   -1.520688|    2.258411|    0.397372|  3.4523e+00|  3.4523e+00|  3.4523e+00|
|        4167|  1.1256e-01|   -1.518144|    2.258578|    0.395507|  3.7975e+00|  3.7975e+00|  3.7975e+00|
|        4168|  1.1256e-01|   -1.514548|    2.258512|    0.393460|  4.1772e+00|  4.1772e+00|  4.1772e+00|
|        4169|  1.1255e-01|   -1.509296|    2.258339|    0.391199|  4.5950e+00|  4.5950e+00|  4.5950e+00|
|        4170|  1.1254e-01|   -1.512149|    2.258226|    0.388703|  5.0545e+00|  5.0545e+00|  5.0545e+00|
|        4171|  1.1253e-01|   -1.510494|    2.258164|    0.385943|  5.5599e+00|  5.5599e+00|  5.5599e+00|
|        4172|  1.1253e-01|   -1.509626|    2.257762|    0.382864|  6.1159e+00|  6.1159e+00|  6.1159e+00|
|        4173|  1.1252e-01|   -1.507802|    2.257168|    0.379450|  6.7275e+00|  6.7275e+00|  6.7275e+00|
|        4174|  1.1252e-01|   -1.504983|    2.256565|    0.375755|  7.4002e+00|  7.4002e+00|  7.4002e+00|
|        4175|  1.1251e-01|   -1.501571|    2.256128|    0.371739|  8.1403e+00|  8.1403e+00|  8.1403e+00|
|        4176|  1.1250e-01|   -1.498032|    2.255385|    0.367445|  8.9543e+00|  8.9543e+00|  8.9543e+00|
|        4177|  1.1250e-01|   -1.495933|    2.254456|    0.362936|  9.8497e+00|  9.8497e+00|  9.8497e+00|
