
-------------------------------------------------------------------------
|    ___ _   _ ___                                                      |
|   / __| | | |_  )   Release 8.0.0 "Harrier"                           |
|   \__ \ |_| |/ /                                                      |
|   |___/\___//___|   Suite (Computational Fluid Dynamics Code)         |
|                                                                       |
-------------------------------------------------------------------------
| SU2 Project Website: https://su2code.github.io                        |
|                                                                       |
| The SU2 Project is maintained by the SU2 Foundation                   |
| (http://su2foundation.org)                                            |
-------------------------------------------------------------------------
| Copyright 2012-2023, SU2 Contributors                                 |
|                                                                       |
| SU2 is free software; you can redistribute it and/or                  |
| modify it under the terms of the GNU Lesser General Public            |
| License as published by the Free Software Foundation; either          |
| version 2.1 of the License, or (at your option) any later version.    |
|                                                                       |
| SU2 is distributed in the hope that it will be useful,                |
| but WITHOUT ANY WARRANTY; without even the implied warranty of        |
| MERCHANTABILITY or FITNESS FOR A PARTICULAR PURPOSE. See the GNU      |
| Lesser General Public License for more details.                       |
|                                                                       |
| You should have received a copy of the GNU Lesser General Public      |
| License along with SU2. If not, see <http://www.gnu.org/licenses/>.   |
-------------------------------------------------------------------------

Parsing config file for zone 0

----------------- Physical Case Definition ( Zone 0 ) -------------------
Compressible RANS equations.
Turbulence model: Spalart-Allmaras-noft2
Hybrid RANS/LES: No Hybrid RANS/LES
Mach number: 0.734.
Angle of attack (AoA): 2.31 deg, and angle of sideslip (AoS): 0 deg.
Reynolds number: 6.5e+06. Reference length 1.
Fixed CL mode, target value: 0.824.
Reading and writing binary SU2 native restart files.
Read flow solution from: solution_flow.dat.
Dimensional simulation.
The reference area is 1 m^2.
The semi-span will be computed using the max y(3D) value.
The reference length is 1 m.
Reference origin for moment evaluation is (0.25, 0, 0).
Surface(s) where the force coefficients are evaluated: AIRFOIL.

Surface(s) plotted in the output file: AIRFOIL.
Surface(s) affected by the design variables: AIRFOIL.
Input mesh file name: mesh_RAE2822_turb_deform.su2

--------------- Space Numerical Integration ( Zone 0 ) ------------------
Jameson-Schmidt-Turkel scheme (2nd order in space) for the flow inviscid terms.
JST viscous coefficients (2nd & 4th): 0.5, 0.02.
The method includes a grid stretching correction (p = 0.3).
Scalar upwind solver for the turbulence model.
First order integration in space.
Average of gradients with correction (viscous flow terms).
Average of gradients with correction (viscous turbulence terms).
Gradient for viscous and source terms: inverse-distance weighted Least-Squares.

--------------- Time Numerical Integration  ( Zone 0 ) ------------------
Local time stepping (steady state simulation).
Euler implicit method for the flow equations.
FGMRES is used for solving the linear system.
Using a ILU(0) preconditioning.
Convergence criteria of the linear solver: 1e-06.
Max number of linear iterations: 10.
No CFL adaptation.
Courant-Friedrichs-Lewy number:       10
Euler implicit time integration for the turbulence model.

------------------ Convergence Criteria  ( Zone 0 ) ---------------------
Maximum number of solver subiterations: 5500.
Begin convergence monitoring at iteration 10.
Residual minimum value: 1e-12.
Cauchy series min. value: 1e-06.
Number of Cauchy elements: 100.
Begin windowed time average at iteration 0.

-------------------- Output Information ( Zone 0 ) ----------------------
File writing frequency: 
+------------------------------------+
|                     File| Frequency|
+------------------------------------+
|                  RESTART|     10000|
|                 PARAVIEW|     10000|
|         SURFACE_PARAVIEW|     10000|
|              SURFACE_CSV|     10000|
+------------------------------------+
Writing the convergence history file every 1 inner iterations.
Writing the screen convergence history every 1 inner iterations.
The tabular file format is CSV (.csv).
Convergence history file name: history_direct.
Forces breakdown file name: forces_breakdown.dat.
Surface file name: surface_flow.
Volume file name: flow.
Restart file name: restart_flow.dat.

------------- Config File Boundary Information ( Zone 0 ) ---------------
+-----------------------------------------------------------------------+
|                        Marker Type|                        Marker Name|
+-----------------------------------------------------------------------+
|                          Far-field|                           FARFIELD|
+-----------------------------------------------------------------------+
|                     Heat flux wall|                            AIRFOIL|
+-----------------------------------------------------------------------+

-------------------- Output Preprocessing ( Zone 0 ) --------------------

WARNING: SURFACE_PRESSURE_DROP can only be computed for at least 2 surfaces (outlet, inlet, ...)

Screen output fields: INNER_ITER, RMS_DENSITY, RMS_NU_TILDE, LIFT, DRAG
History output group(s): ITER, RMS_RES, AERO_COEFF
Convergence field(s): RMS_DENSITY
Warning: No (valid) fields chosen for time convergence monitoring. Time convergence monitoring inactive.
Volume output fields: COORDINATES, SOLUTION, PRIMITIVE

------------------- Geometry Preprocessing ( Zone 0 ) -------------------
Two dimensional problem.
13937 grid points before partitioning.
22842 volume elements before partitioning.
2 surface markers.
192 boundary elements in index 0 (Marker = AIRFOIL).
40 boundary elements in index 1 (Marker = FARFIELD).
Executing the partitioning functions.
Building the graph adjacency structure.
Calling ParMETIS... graph partitioning complete (831 edge cuts).
Distributing ParMETIS coloring.
Rebalancing vertices.
Rebalancing volume element connectivity.
Rebalancing markers and surface elements.
14875 vertices including ghost points. 
23674 interior elements including halo cells. 
18780 triangles.
4894 quadrilaterals.
Establishing MPI communication patterns.
Setting point connectivity.
Renumbering points (Reverse Cuthill McKee Ordering).
Recomputing point connectivity.
Setting element connectivity.
Checking the numerical grid orientation.
All volume elements are correctly orientend.
All surface elements are correctly orientend.
Identifying edges and vertices.
Setting the control volume structure.
Area of the computational grid: 32209.9.
Searching for the closest normal neighbors to the surfaces.
Storing a mapping from global to local point index.
Compute the surface curvature.
Max K: 184.751. Mean K: 8.01347. Standard deviation K: 25.035.
Checking for periodicity.
Computing mesh quality statistics for the dual control volumes.
+--------------------------------------------------------------+
|           Mesh Quality Metric|        Minimum|        Maximum|
+--------------------------------------------------------------+
|    Orthogonality Angle (deg.)|        74.9397|        89.9999|
|     CV Face Area Aspect Ratio|        1.00508|        3358.26|
|           CV Sub-Volume Ratio|        1.00047|        1217.29|
+--------------------------------------------------------------+
Finding max control volume width.
Communicating number of neighbors.
Wetted area = 2.02155 m.
Area projection in the x-plane = 0.125855 m, y-plane = 0.995873 m.
Max. coordinate in the x-direction = 1 m, y-direction = 0.0620262 m.
Min. coordinate in the x-direction = 0 m, y-direction = -0.0605766 m.
Computing wall distances.

-------------------- Solver Preprocessing ( Zone 0 ) --------------------
WARNING: AoA in the solution file (2.78342 deg.) +
         AoA offset in mesh file (0 deg.) = 2.78342 deg.
WARNING: SU2 will use the dCD/dCL provided in the direct solution file: 0.0150213.
WARNING: SU2 will use the dCMz/dCL provided in the direct solution file: 0.0237707.
Viscous flow: Computing pressure using the ideal gas law
based on the free-stream temperature and a density computed
from the Reynolds number.
Force coefficients computed using free-stream values.

-- Models:
+------------------------------------------------------------------------------+
|          Viscosity Model|        Conductivity Model|              Fluid Model|
+------------------------------------------------------------------------------+
|               SUTHERLAND|          CONSTANT_PRANDTL|             STANDARD_AIR|
+------------------------------------------------------------------------------+
-- Fluid properties:
+------------------------------------------------------------------------------+
|                  Name|    Dim. value|    Ref. value|      Unit|Non-dim. value|
+------------------------------------------------------------------------------+
|        Ref. Viscosity|     1.716e-05|             1|   N.s/m^2|     1.716e-05|
|      Sutherland Temp.|        273.15|             1|         K|        273.15|
|     Sutherland Const.|         110.4|             1|         K|         110.4|
+------------------------------------------------------------------------------+
|        Prandtl (Lam.)|             -|             -|         -|          0.71|
|       Prandtl (Turb.)|             -|             -|         -|           0.9|
+------------------------------------------------------------------------------+
|          Gas Constant|       287.058|             1|  N.m/kg.K|       287.058|
|      Spec. Heat Ratio|             -|             -|         -|           1.4|
+------------------------------------------------------------------------------+
-- Initial and free-stream conditions:
+------------------------------------------------------------------------------+
|                  Name|    Dim. value|    Ref. value|      Unit|Non-dim. value|
+------------------------------------------------------------------------------+
|       Static Pressure|         38515|             1|        Pa|         38515|
|               Density|      0.465631|             1|    kg/m^3|      0.465631|
|           Temperature|        288.15|             1|         K|        288.15|
|          Total Energy|        237984|             1|   m^2/s^2|        237984|
|            Velocity-X|       249.483|             1|       m/s|       249.483|
|            Velocity-Y|       12.1294|             1|       m/s|       12.1294|
|    Velocity Magnitude|       249.778|             1|       m/s|       249.778|
+------------------------------------------------------------------------------+
|             Viscosity|    1.7893e-05|             1|   N.s/m^2|    1.7893e-05|
|          Conductivity|             -|             1|   W/m^2.K|             -|
|     Turb. Kin. Energy|       233.959|             1|   m^2/s^2|       233.959|
|     Spec. Dissipation|        608834|             1|       1/s|        608834|
+------------------------------------------------------------------------------+
|           Mach Number|             -|             -|         -|         0.734|
|       Reynolds Number|             -|             -|         -|       6.5e+06|
+------------------------------------------------------------------------------+
Initialize Jacobian structure (Navier-Stokes). MG level: 0.
Initialize Jacobian structure (SA model).

------------------- Numerics Preprocessing ( Zone 0 ) -------------------

----------------- Integration Preprocessing ( Zone 0 ) ------------------

------------------- Iteration Preprocessing ( Zone 0 ) ------------------
Euler/Navier-Stokes/RANS fluid iteration.

------------------------------ Begin Solver -----------------------------

Simulation Run using the Single-zone Driver
WARNING: SU2 was not compiled for an AVX-capable architecture. Performance could be better,
         see https://su2code.github.io/docs_v7/Build-SU2-Linux-MacOS/#compiler-optimizations
+----------------------------------------------------------------+
|  Inner_Iter|    rms[Rho]|     rms[nu]|          CL|          CD|
+----------------------------------------------------------------+
|           0|   -4.132587|   -5.407851|    0.824488|    0.012164|
|           1|   -4.186606|   -5.496169|    0.824686|    0.012214|
|           2|   -4.243037|   -5.603549|    0.824657|    0.012240|
|           3|   -4.287086|   -5.727306|    0.824511|    0.012245|
|           4|   -4.319433|   -5.862516|    0.824344|    0.012237|
|           5|   -4.340314|   -5.993866|    0.824214|    0.012223|
|           6|   -4.350844|   -6.086131|    0.824143|    0.012210|
|           7|   -4.354182|   -6.105772|    0.824126|    0.012202|
|           8|   -4.353292|   -6.071763|    0.824150|    0.012202|
|           9|   -4.349454|   -6.024759|    0.824200|    0.012210|
|          10|   -4.342742|   -5.985642|    0.824265|    0.012224|
|          11|   -4.333159|   -5.960452|    0.824336|    0.012243|
|          12|   -4.321296|   -5.950344|    0.824407|    0.012267|
|          13|   -4.308265|   -5.954696|    0.824472|    0.012295|
|          14|   -4.295328|   -5.971249|    0.824525|    0.012324|
|          15|   -4.283557|   -5.994712|    0.824561|    0.012355|
|          16|   -4.273665|   -6.015088|    0.824575|    0.012385|
|          17|   -4.265954|   -6.019436|    0.824564|    0.012413|
|          18|   -4.260342|   -6.000605|    0.824526|    0.012439|
|          19|   -4.256443|   -5.964246|    0.824462|    0.012461|
|          20|   -4.253711|   -5.922678|    0.824374|    0.012479|
|          21|   -4.251611|   -5.885827|    0.824264|    0.012493|
|          22|   -4.249776|   -5.858764|    0.824136|    0.012503|
|          23|   -4.248087|   -5.843132|    0.823996|    0.012509|
|          24|   -4.246649|   -5.838718|    0.823847|    0.012511|
|          25|   -4.245685|   -5.844219|    0.823694|    0.012511|
|          26|   -4.245407|   -5.857510|    0.823542|    0.012508|
|          27|   -4.245913|   -5.875687|    0.823393|    0.012503|
|          28|   -4.247145|   -5.895151|    0.823250|    0.012496|
|          29|   -4.248905|   -5.912093|    0.823115|    0.012487|
|          30|   -4.250905|   -5.923475|    0.822988|    0.012478|
|          31|   -4.252835|   -5.928091|    0.822871|    0.012466|
|          32|   -4.254421|   -5.926900|    0.822763|    0.012454|
|          33|   -4.255470|   -5.922292|    0.822662|    0.012440|
|          34|   -4.255890|   -5.916945|    0.822569|    0.012424|
|          35|   -4.255689|   -5.913026|    0.822482|    0.012408|
|          36|   -4.254957|   -5.911899|    0.822399|    0.012389|
|          37|   -4.253837|   -5.914176|    0.822321|    0.012370|
|          38|   -4.252498|   -5.919925|    0.822245|    0.012349|
|          39|   -4.251103|   -5.928781|    0.822171|    0.012327|
|          40|   -4.249789|   -5.940089|    0.822100|    0.012304|
|          41|   -4.248658|   -5.952971|    0.822029|    0.012280|
|          42|   -4.247767|   -5.966418|    0.821960|    0.012256|
|          43|   -4.247136|   -5.979378|    0.821891|    0.012232|
|          44|   -4.246748|   -5.990856|    0.821825|    0.012208|
|          45|   -4.246566|   -6.000025|    0.821760|    0.012184|
|          46|   -4.246531|   -6.006353|    0.821698|    0.012160|
|          47|   -4.246574|   -6.009648|    0.821638|    0.012137|
|          48|   -4.246625|   -6.010054|    0.821582|    0.012114|
|          49|   -4.246611|   -6.007980|    0.821531|    0.012092|
|          50|   -4.246467|   -6.004010|    0.821484|    0.012070|
|          51|   -4.246139|   -5.998784|    0.821442|    0.012049|
|          52|   -4.245584|   -5.992909|    0.821406|    0.012029|
|          53|   -4.244776|   -5.986908|    0.821377|    0.012008|
|          54|   -4.243708|   -5.981196|    0.821354|    0.011988|
|          55|   -4.242388|   -5.976061|    0.821338|    0.011969|
|          56|   -4.240837|   -5.971691|    0.821329|    0.011949|
|          57|   -4.239085|   -5.968191|    0.821326|    0.011931|
|          58|   -4.237169|   -5.965605|    0.821330|    0.011912|
|          59|   -4.235122|   -5.963908|    0.821341|    0.011893|
|          60|   -4.232976|   -5.963049|    0.821356|    0.011875|
|          61|   -4.230754|   -5.962957|    0.821377|    0.011858|
|          62|   -4.228474|   -5.963546|    0.821401|    0.011840|
|          63|   -4.226145|   -5.964730|    0.821429|    0.011824|
|          64|   -4.223776|   -5.966404|    0.821460|    0.011807|
|          65|   -4.221373|   -5.968468|    0.821492|    0.011791|
|          66|   -4.218943|   -5.970824|    0.821525|    0.011776|
|          67|   -4.216498|   -5.973374|    0.821559|    0.011761|
|          68|   -4.214053|   -5.976025|    0.821592|    0.011747|
|          69|   -4.211630|   -5.978694|    0.821623|    0.011734|
|          70|   -4.209253|   -5.981306|    0.821653|    0.011721|
|          71|   -4.206945|   -5.983799|    0.821681|    0.011709|
|          72|   -4.204729|   -5.986123|    0.821707|    0.011697|
|          73|   -4.202624|   -5.988236|    0.821730|    0.011686|
|          74|   -4.200641|   -5.990116|    0.821750|    0.011676|
|          75|   -4.198785|   -5.991756|    0.821768|    0.011667|
|          76|   -4.197049|   -5.993154|    0.821782|    0.011658|
|          77|   -4.195422|   -5.994323|    0.821794|    0.011649|
|          78|   -4.193884|   -5.995275|    0.821804|    0.011642|
|          79|   -4.192412|   -5.996041|    0.821811|    0.011634|
|          80|   -4.190981|   -5.996656|    0.821816|    0.011628|
|          81|   -4.189566|   -5.997168|    0.821818|    0.011621|
|          82|   -4.188150|   -5.997627|    0.821819|    0.011616|
|          83|   -4.186720|   -5.998084|    0.821819|    0.011611|
|          84|   -4.185272|   -5.998592|    0.821817|    0.011606|
|          85|   -4.183815|   -5.999201|    0.821814|    0.011602|
|          86|   -4.182364|   -5.999956|    0.821811|    0.011598|
|          87|   -4.180946|   -6.000892|    0.821807|    0.011595|
|          88|   -4.179597|   -6.002037|    0.821803|    0.011593|
|          89|   -4.178357|   -6.003410|    0.821800|    0.011591|
|          90|   -4.177270|   -6.005018|    0.821796|    0.011590|
|          91|   -4.176383|   -6.006858|    0.821793|    0.011590|
|          92|   -4.175740|   -6.008924|    0.821792|    0.011590|
|          93|   -4.175382|   -6.011201|    0.821791|    0.011591|
|          94|   -4.175344|   -6.013677|    0.821792|    0.011593|
|          95|   -4.175654|   -6.016337|    0.821794|    0.011596|
|          96|   -4.176329|   -6.019179|    0.821797|    0.011600|
|          97|   -4.177377|   -6.022185|    0.821803|    0.011604|
|          98|   -4.178796|   -6.025332|    0.821810|    0.011609|
|          99|   -4.180570|   -6.028618|    0.821819|    0.011615|
|         100|   -4.182675|   -6.032043|    0.821830|    0.011622|
|         101|   -4.185072|   -6.035612|    0.821840|    0.011786|
+-----------------------------------------------------------------------+
|Fixed CL Mode                           |Value                         |
+-----------------------------------------------------------------------+
|Current CL                              |0.82184                       |
|Target CL                               |0.824                         |
|Previous AOA                            |2.78342                       |
|Changed AoA by                          |0.0108521                     |
+-----------------------------------------------------------------------+
+----------------------------------------------------------------+
|  Inner_Iter|    rms[Rho]|     rms[nu]|          CL|          CD|
+----------------------------------------------------------------+
|         102|   -2.157906|   -5.973037|    0.821853|    0.011794|
|         103|   -2.543013|   -6.008057|    0.821868|    0.011804|
|         104|   -2.788885|   -6.021567|    0.821884|    0.011814|
|         105|   -2.868426|   -6.030834|    0.821901|    0.011824|
|         106|   -2.921902|   -6.038828|    0.821918|    0.011835|
|         107|   -2.991124|   -6.046354|    0.821936|    0.011847|
|         108|   -3.076604|   -6.053581|    0.821953|    0.011859|
|         109|   -3.165456|   -6.060571|    0.821970|    0.011871|
|         110|   -3.241243|   -6.067424|    0.821986|    0.011884|
|         111|   -3.296082|   -6.074218|    0.822001|    0.011896|
|         112|   -3.332150|   -6.080973|    0.822015|    0.011909|
|         113|   -3.353521|   -6.087802|    0.822028|    0.011921|
|         114|   -3.363910|   -6.094844|    0.822039|    0.011933|
|         115|   -3.368795|   -6.102195|    0.822048|    0.011945|
|         116|   -3.374455|   -6.109904|    0.822055|    0.011957|
|         117|   -3.385190|   -6.117913|    0.822060|    0.011969|
|         118|   -3.402051|   -6.126183|    0.822063|    0.011980|
|         119|   -3.423311|   -6.134755|    0.822065|    0.011990|
|         120|   -3.445896|   -6.143653|    0.822064|    0.012000|
|         121|   -3.467191|   -6.152873|    0.822062|    0.012010|
|         122|   -3.486342|   -6.162363|    0.822058|    0.012019|
|         123|   -3.504203|   -6.172093|    0.822053|    0.012028|
|         124|   -3.522181|   -6.182030|    0.822047|    0.012037|
|         125|   -3.541116|   -6.192113|    0.822040|    0.012045|
|         126|   -3.560885|   -6.202278|    0.822032|    0.012052|
|         127|   -3.580620|   -6.212477|    0.822023|    0.012060|
|         128|   -3.599163|   -6.222673|    0.822015|    0.012067|
|         129|   -3.615446|   -6.232864|    0.822007|    0.012074|
|         130|   -3.628741|   -6.243062|    0.821999|    0.012081|
|         131|   -3.638814|   -6.253244|    0.821992|    0.012088|
|         132|   -3.646005|   -6.263397|    0.821986|    0.012094|
|         133|   -3.651193|   -6.273549|    0.821981|    0.012101|
|         134|   -3.655574|   -6.283650|    0.821977|    0.012108|
|         135|   -3.660363|   -6.293679|    0.821975|    0.012114|
|         136|   -3.666524|   -6.303567|    0.821974|    0.012121|
|         137|   -3.674618|   -6.313271|    0.821975|    0.012128|
|         138|   -3.684761|   -6.322605|    0.821979|    0.012135|
|         139|   -3.696631|   -6.331420|    0.821984|    0.012142|
|         140|   -3.709534|   -6.339637|    0.821991|    0.012149|
|         141|   -3.722497|   -6.347196|    0.822000|    0.012156|
|         142|   -3.734466|   -6.353930|    0.822011|    0.012163|
|         143|   -3.744560|   -6.359734|    0.822024|    0.012170|
|         144|   -3.752338|   -6.364477|    0.822040|    0.012178|
|         145|   -3.757931|   -6.368119|    0.822057|    0.012185|
|         146|   -3.761978|   -6.370724|    0.822077|    0.012192|
|         147|   -3.765391|   -6.372237|    0.822099|    0.012199|
|         148|   -3.769082|   -6.372763|    0.822123|    0.012206|
|         149|   -3.773746|   -6.372378|    0.822150|    0.012213|
|         150|   -3.779764|   -6.371181|    0.822179|    0.012219|
|         151|   -3.787188|   -6.369294|    0.822211|    0.012226|
|         152|   -3.795800|   -6.366876|    0.822246|    0.012232|
|         153|   -3.805203|   -6.364075|    0.822283|    0.012238|
|         154|   -3.814929|   -6.361047|    0.822324|    0.012244|
|         155|   -3.824547|   -6.357950|    0.822367|    0.012250|
|         156|   -3.833746|   -6.354961|    0.822413|    0.012256|
|         157|   -3.842386|   -6.352196|    0.822462|    0.012261|
|         158|   -3.850494|   -6.349789|    0.822514|    0.012266|
|         159|   -3.858224|   -6.347798|    0.822570|    0.012270|
|         160|   -3.865796|   -6.346335|    0.822628|    0.012275|
|         161|   -3.873431|   -6.345536|    0.822689|    0.012279|
|         162|   -3.881309|   -6.345436|    0.822753|    0.012283|
|         163|   -3.889541|   -6.346084|    0.822820|    0.012287|
|         164|   -3.898171|   -6.347523|    0.822889|    0.012290|
|         165|   -3.907187|   -6.349789|    0.822959|    0.012293|
|         166|   -3.916538|   -6.352885|    0.823032|    0.012296|
|         167|   -3.926160|   -6.356818|    0.823106|    0.012299|
|         168|   -3.935985|   -6.361582|    0.823181|    0.012301|
|         169|   -3.945952|   -6.367158|    0.823257|    0.012303|
|         170|   -3.956011|   -6.373516|    0.823333|    0.012305|
|         171|   -3.966118|   -6.380617|    0.823408|    0.012306|
|         172|   -3.976228|   -6.388389|    0.823482|    0.012307|
|         173|   -3.986296|   -6.396720|    0.823555|    0.012308|
|         174|   -3.996264|   -6.405467|    0.823626|    0.012309|
|         175|   -4.006069|   -6.414456|    0.823695|    0.012309|
|         176|   -4.015635|   -6.423474|    0.823760|    0.012309|
|         177|   -4.024885|   -6.432210|    0.823822|    0.012308|
|         178|   -4.033741|   -6.440346|    0.823880|    0.012307|
|         179|   -4.042129|   -6.447603|    0.823933|    0.012306|
|         180|   -4.049986|   -6.453664|    0.823982|    0.012304|
|         181|   -4.057264|   -6.458241|    0.824026|    0.012302|
|         182|   -4.063931|   -6.461086|    0.824065|    0.012300|
|         183|   -4.069973|   -6.462055|    0.824098|    0.012297|
|         184|   -4.075396|   -6.461121|    0.824126|    0.012293|
|         185|   -4.080223|   -6.458337|    0.824148|    0.012290|
|         186|   -4.084493|   -6.453930|    0.824164|    0.012286|
|         187|   -4.088260|   -6.448176|    0.824175|    0.012282|
|         188|   -4.091587|   -6.441388|    0.824180|    0.012277|
|         189|   -4.094543|   -6.433934|    0.824180|    0.012272|
|         190|   -4.097199|   -6.426146|    0.824174|    0.012267|
|         191|   -4.099625|   -6.418372|    0.824164|    0.012261|
|         192|   -4.101883|   -6.410920|    0.824149|    0.012255|
|         193|   -4.104027|   -6.404051|    0.824129|    0.012249|
|         194|   -4.106099|   -6.397960|    0.824106|    0.012243|
|         195|   -4.108128|   -6.392851|    0.824078|    0.012236|
|         196|   -4.110129|   -6.388852|    0.824048|    0.012230|
|         197|   -4.112103|   -6.386076|    0.824014|    0.012223|
|         198|   -4.114040|   -6.384616|    0.823977|    0.012216|
|         199|   -4.115917|   -6.384548|    0.823939|    0.012209|
|         200|   -4.117702|   -6.385928|    0.823898|    0.012203|
|         201|   -4.119360|   -6.388796|    0.823856|    0.012203|
+-----------------------------------------------------------------------+
|Fixed CL Mode                           |Value                         |
+-----------------------------------------------------------------------+
|Current CL                              |0.823856                      |
|Target CL                               |0.824                         |
|Previous AOA                            |2.79427                       |
|Changed AoA by                          |0.000509986                   |
+-----------------------------------------------------------------------+
+----------------------------------------------------------------+
|  Inner_Iter|    rms[Rho]|     rms[nu]|          CL|          CD|
+----------------------------------------------------------------+
|         202|   -3.473529|   -6.392129|    0.823812|    0.012196|
|         203|   -3.802000|   -6.398425|    0.823768|    0.012189|
|         204|   -3.947902|   -6.405787|    0.823723|    0.012182|
|         205|   -3.982667|   -6.414386|    0.823678|    0.012176|
|         206|   -4.004496|   -6.424153|    0.823633|    0.012169|
|         207|   -4.028623|   -6.434964|    0.823588|    0.012163|
|         208|   -4.052554|   -6.446655|    0.823545|    0.012157|
|         209|   -4.072242|   -6.459021|    0.823502|    0.012151|
|         210|   -4.086302|   -6.471810|    0.823461|    0.012145|
|         211|   -4.095795|   -6.484730|    0.823421|    0.012140|
|         212|   -4.102153|   -6.497441|    0.823383|    0.012135|
|         213|   -4.106209|   -6.509538|    0.823347|    0.012130|
|         214|   -4.108476|   -6.520635|    0.823313|    0.012125|
|         215|   -4.109539|   -6.530379|    0.823281|    0.012121|
|         216|   -4.110078|   -6.538430|    0.823252|    0.012117|
|         217|   -4.110670|   -6.544518|    0.823226|    0.012114|
|         218|   -4.111659|   -6.548457|    0.823203|    0.012111|
|         219|   -4.113179|   -6.550260|    0.823183|    0.012108|
|         220|   -4.115262|   -6.550028|    0.823166|    0.012106|
|         221|   -4.117937|   -6.547976|    0.823152|    0.012104|
|         222|   -4.121262|   -6.544396|    0.823141|    0.012102|
|         223|   -4.125293|   -6.539628|    0.823134|    0.012101|
|         224|   -4.130045|   -6.533986|    0.823130|    0.012101|
|         225|   -4.135475|   -6.527890|    0.823130|    0.012100|
|         226|   -4.141503|   -6.521670|    0.823132|    0.012101|
|         227|   -4.148046|   -6.515607|    0.823138|    0.012101|
|         228|   -4.155044|   -6.509928|    0.823148|    0.012102|
|         229|   -4.162476|   -6.504824|    0.823160|    0.012103|
|         230|   -4.170355|   -6.500440|    0.823176|    0.012105|
|         231|   -4.178712|   -6.496882|    0.823194|    0.012107|
|         232|   -4.187587|   -6.494220|    0.823215|    0.012109|
|         233|   -4.197011|   -6.492493|    0.823239|    0.012112|
|         234|   -4.206999|   -6.491707|    0.823266|    0.012115|
|         235|   -4.217530|   -6.491842|    0.823295|    0.012118|
|         236|   -4.228550|   -6.492854|    0.823325|    0.012122|
|         237|   -4.239962|   -6.494683|    0.823358|    0.012126|
|         238|   -4.251636|   -6.497257|    0.823393|    0.012130|
|         239|   -4.263413|   -6.500491|    0.823428|    0.012134|
|         240|   -4.275120|   -6.504284|    0.823466|    0.012138|
|         241|   -4.286578|   -6.508524|    0.823504|    0.012142|
|         242|   -4.297618|   -6.513095|    0.823542|    0.012147|
|         243|   -4.308089|   -6.517876|    0.823582|    0.012151|
|         244|   -4.317871|   -6.522744|    0.823621|    0.012156|
|         245|   -4.326874|   -6.527583|    0.823661|    0.012160|
|         246|   -4.335038|   -6.532280|    0.823700|    0.012165|
|         247|   -4.342330|   -6.536739|    0.823739|    0.012169|
|         248|   -4.348735|   -6.540875|    0.823777|    0.012173|
|         249|   -4.354249|   -6.544622|    0.823814|    0.012178|
|         250|   -4.358880|   -6.547934|    0.823850|    0.012182|
|         251|   -4.362645|   -6.550785|    0.823885|    0.012186|
|         252|   -4.365570|   -6.553172|    0.823919|    0.012190|
|         253|   -4.367698|   -6.555103|    0.823951|    0.012193|
|         254|   -4.369083|   -6.556607|    0.823982|    0.012197|
|         255|   -4.369799|   -6.557728|    0.824010|    0.012200|
|         256|   -4.369929|   -6.558512|    0.824038|    0.012203|
|         257|   -4.369567|   -6.559012|    0.824063|    0.012205|
|         258|   -4.368810|   -6.559273|    0.824087|    0.012208|
|         259|   -4.367752|   -6.559336|    0.824109|    0.012210|
|         260|   -4.366483|   -6.559238|    0.824129|    0.012212|
|         261|   -4.365081|   -6.559004|    0.824147|    0.012213|
|         262|   -4.363617|   -6.558649|    0.824164|    0.012215|
|         263|   -4.362149|   -6.558177|    0.824180|    0.012216|
|         264|   -4.360725|   -6.557589|    0.824194|    0.012217|
|         265|   -4.359386|   -6.556876|    0.824206|    0.012217|
|         266|   -4.358163|   -6.556028|    0.824218|    0.012218|
|         267|   -4.357082|   -6.555036|    0.824228|    0.012218|
|         268|   -4.356164|   -6.553892|    0.824238|    0.012218|
|         269|   -4.355425|   -6.552594|    0.824247|    0.012217|
|         270|   -4.354876|   -6.551145|    0.824255|    0.012217|
|         271|   -4.354525|   -6.549558|    0.824262|    0.012216|
|         272|   -4.354376|   -6.547858|    0.824269|    0.012215|
|         273|   -4.354432|   -6.546068|    0.824276|    0.012214|
|         274|   -4.354690|   -6.544228|    0.824282|    0.012213|
|         275|   -4.355147|   -6.542411|    0.824289|    0.012211|
|         276|   -4.355795|   -6.540681|    0.824295|    0.012210|
|         277|   -4.356628|   -6.539111|    0.824302|    0.012208|
|         278|   -4.357634|   -6.537763|    0.824308|    0.012207|
|         279|   -4.358803|   -6.536688|    0.824315|    0.012205|
|         280|   -4.360121|   -6.535943|    0.824323|    0.012203|
|         281|   -4.361575|   -6.535580|    0.824330|    0.012201|
|         282|   -4.363151|   -6.535645|    0.824338|    0.012200|
|         283|   -4.364836|   -6.536174|    0.824346|    0.012198|
|         284|   -4.366614|   -6.537194|    0.824355|    0.012196|
|         285|   -4.368472|   -6.538719|    0.824363|    0.012194|
|         286|   -4.370397|   -6.540750|    0.824372|    0.012192|
|         287|   -4.372375|   -6.543277|    0.824382|    0.012190|
|         288|   -4.374396|   -6.546275|    0.824391|    0.012188|
|         289|   -4.376448|   -6.549708|    0.824401|    0.012186|
|         290|   -4.378524|   -6.553528|    0.824411|    0.012184|
|         291|   -4.380615|   -6.557679|    0.824421|    0.012182|
|         292|   -4.382716|   -6.562093|    0.824431|    0.012181|
|         293|   -4.384823|   -6.566697|    0.824441|    0.012179|
|         294|   -4.386935|   -6.571415|    0.824450|    0.012177|
|         295|   -4.389051|   -6.576168|    0.824460|    0.012175|
|         296|   -4.391172|   -6.580883|    0.824469|    0.012173|
|         297|   -4.393300|   -6.585487|    0.824479|    0.012171|
|         298|   -4.395438|   -6.589919|    0.824488|    0.012169|
|         299|   -4.397590|   -6.594127|    0.824496|    0.012167|
|         300|   -4.399761|   -6.598074|    0.824505|    0.012166|
|         301|   -4.401953|   -6.601737|    0.824513|    0.012127|
+-----------------------------------------------------------------------+
|Fixed CL Mode                           |Value                         |
+-----------------------------------------------------------------------+
|Current CL                              |0.824513                      |
|Target CL                               |0.824                         |
|Previous AOA                            |2.79478                       |
|Changed AoA by                          |-0.00252394                   |
+-----------------------------------------------------------------------+
+----------------------------------------------------------------+
|  Inner_Iter|    rms[Rho]|     rms[nu]|          CL|          CD|
+----------------------------------------------------------------+
|         302|   -2.791099|   -6.553899|    0.824521|    0.012125|
|         303|   -3.175378|   -6.581359|    0.824529|    0.012123|
|         304|   -3.420336|   -6.591641|    0.824536|    0.012121|
|         305|   -3.500425|   -6.598193|    0.824543|    0.012119|
|         306|   -3.554440|   -6.603283|    0.824550|    0.012117|
|         307|   -3.623633|   -6.607508|    0.824556|    0.012115|
|         308|   -3.708223|   -6.611101|    0.824563|    0.012113|
|         309|   -3.794845|   -6.614227|    0.824569|    0.012111|
|         310|   -3.866807|   -6.617001|    0.824575|    0.012109|
|         311|   -3.916711|   -6.619501|    0.824581|    0.012107|
|         312|   -3.947639|   -6.621789|    0.824588|    0.012104|
|         313|   -3.964534|   -6.623969|    0.824594|    0.012102|
|         314|   -3.971670|   -6.626161|    0.824601|    0.012100|
|         315|   -3.974412|   -6.628453|    0.824608|    0.012098|
|         316|   -3.978394|   -6.630875|    0.824615|    0.012095|
|         317|   -3.987244|   -6.633418|    0.824622|    0.012093|
|         318|   -4.001619|   -6.636068|    0.824630|    0.012091|
|         319|   -4.019724|   -6.638822|    0.824638|    0.012089|
|         320|   -4.038679|   -6.641695|    0.824647|    0.012087|
|         321|   -4.056141|   -6.644685|    0.824656|    0.012085|
|         322|   -4.071386|   -6.647781|    0.824666|    0.012083|
|         323|   -4.085161|   -6.650959|    0.824676|    0.012081|
|         324|   -4.098668|   -6.654192|    0.824687|    0.012079|
|         325|   -4.112646|   -6.657463|    0.824698|    0.012077|
|         326|   -4.127081|   -6.660769|    0.824710|    0.012076|
|         327|   -4.141424|   -6.664110|    0.824722|    0.012074|
|         328|   -4.154937|   -6.667498|    0.824734|    0.012072|
|         329|   -4.166962|   -6.670944|    0.824747|    0.012071|
|         330|   -4.177044|   -6.674462|    0.824761|    0.012070|
|         331|   -4.185008|   -6.678065|    0.824774|    0.012069|
|         332|   -4.191015|   -6.681755|    0.824788|    0.012068|
|         333|   -4.195558|   -6.685545|    0.824802|    0.012067|
|         334|   -4.199354|   -6.689443|    0.824815|    0.012066|
|         335|   -4.203165|   -6.693445|    0.824829|    0.012066|
|         336|   -4.207618|   -6.697533|    0.824843|    0.012065|
|         337|   -4.213084|   -6.701682|    0.824856|    0.012065|
|         338|   -4.219640|   -6.705868|    0.824869|    0.012065|
|         339|   -4.227079|   -6.710060|    0.824882|    0.012065|
|         340|   -4.234962|   -6.714229|    0.824894|    0.012065|
|         341|   -4.242715|   -6.718344|    0.824906|    0.012065|
|         342|   -4.249753|   -6.722378|    0.824917|    0.012065|
|         343|   -4.255633|   -6.726307|    0.824927|    0.012065|
|         344|   -4.260174|   -6.730113|    0.824936|    0.012066|
|         345|   -4.263501|   -6.733786|    0.824945|    0.012066|
|         346|   -4.265996|   -6.737319|    0.824952|    0.012067|
|         347|   -4.268168|   -6.740715|    0.824958|    0.012068|
|         348|   -4.270512|   -6.743987|    0.824963|    0.012068|
|         349|   -4.273402|   -6.747137|    0.824967|    0.012069|
|         350|   -4.277030|   -6.750191|    0.824970|    0.012070|
|         351|   -4.281405|   -6.753180|    0.824972|    0.012071|
|         352|   -4.286395|   -6.756139|    0.824972|    0.012072|
|         353|   -4.291780|   -6.759116|    0.824971|    0.012072|
|         354|   -4.297318|   -6.762154|    0.824968|    0.012073|
|         355|   -4.302805|   -6.765289|    0.824964|    0.012074|
|         356|   -4.308111|   -6.768551|    0.824959|    0.012075|
|         357|   -4.313199|   -6.771972|    0.824952|    0.012076|
|         358|   -4.318111|   -6.775597|    0.824944|    0.012076|
|         359|   -4.322947|   -6.779453|    0.824934|    0.012077|
|         360|   -4.327833|   -6.783583|    0.824924|    0.012077|
|         361|   -4.332891|   -6.788024|    0.824912|    0.012078|
|         362|   -4.338218|   -6.792805|    0.824899|    0.012079|
|         363|   -4.343882|   -6.797937|    0.824885|    0.012079|
|         364|   -4.349918|   -6.803433|    0.824870|    0.012079|
|         365|   -4.356336|   -6.809298|    0.824855|    0.012080|
|         366|   -4.363131|   -6.815519|    0.824838|    0.012080|
|         367|   -4.370289|   -6.822071|    0.824822|    0.012080|
|         368|   -4.377796|   -6.828914|    0.824804|    0.012080|
|         369|   -4.385641|   -6.835990|    0.824787|    0.012080|
|         370|   -4.393812|   -6.843220|    0.824769|    0.012080|
|         371|   -4.402299|   -6.850507|    0.824752|    0.012080|
|         372|   -4.411088|   -6.857744|    0.824735|    0.012080|
|         373|   -4.420158|   -6.864804|    0.824718|    0.012080|
|         374|   -4.429481|   -6.871552|    0.824701|    0.012080|
|         375|   -4.439019|   -6.877842|    0.824685|    0.012080|
|         376|   -4.448725|   -6.883527|    0.824670|    0.012080|
|         377|   -4.458543|   -6.888470|    0.824655|    0.012079|
|         378|   -4.468409|   -6.892546|    0.824642|    0.012079|
|         379|   -4.478254|   -6.895656|    0.824629|    0.012079|
|         380|   -4.488001|   -6.897724|    0.824618|    0.012079|
|         381|   -4.497571|   -6.898713|    0.824608|    0.012078|
|         382|   -4.506883|   -6.898633|    0.824598|    0.012078|
|         383|   -4.515855|   -6.897544|    0.824591|    0.012078|
|         384|   -4.524407|   -6.895539|    0.824584|    0.012077|
|         385|   -4.532460|   -6.892736|    0.824578|    0.012077|
|         386|   -4.539946|   -6.889274|    0.824574|    0.012076|
|         387|   -4.546803|   -6.885302|    0.824571|    0.012076|
|         388|   -4.552980|   -6.880970|    0.824569|    0.012075|
|         389|   -4.558441|   -6.876434|    0.824568|    0.012075|
|         390|   -4.563165|   -6.871841|    0.824569|    0.012074|
|         391|   -4.567146|   -6.867325|    0.824570|    0.012074|
|         392|   -4.570393|   -6.863006|    0.824572|    0.012073|
|         393|   -4.572931|   -6.858985|    0.824576|    0.012073|
|         394|   -4.574796|   -6.855343|    0.824580|    0.012072|
|         395|   -4.576036|   -6.852146|    0.824585|    0.012072|
|         396|   -4.576708|   -6.849441|    0.824591|    0.012071|
|         397|   -4.576874|   -6.847263|    0.824597|    0.012070|
|         398|   -4.576599|   -6.845633|    0.824604|    0.012070|
|         399|   -4.575951|   -6.844557|    0.824612|    0.012069|
|         400|   -4.574997|   -6.844031|    0.824620|    0.012068|
|         401|   -4.573804|   -6.844038|    0.824629|    0.012023|
+-----------------------------------------------------------------------+
|Fixed CL Mode                           |Value                         |
+-----------------------------------------------------------------------+
|Current CL                              |0.824629                      |
|Target CL                               |0.824                         |
|Previous AOA                            |2.79225                       |
|Changed AoA by                          |-0.00309998                   |
+-----------------------------------------------------------------------+
+----------------------------------------------------------------+
|  Inner_Iter|    rms[Rho]|     rms[nu]|          CL|          CD|
+----------------------------------------------------------------+
|         402|   -2.701947|   -6.671468|    0.824638|    0.012023|
|         403|   -3.085713|   -6.743502|    0.824648|    0.012022|
|         404|   -3.328054|   -6.770709|    0.824658|    0.012021|
|         405|   -3.406321|   -6.787529|    0.824668|    0.012021|
|         406|   -3.460021|   -6.800530|    0.824678|    0.012020|
|         407|   -3.529680|   -6.811318|    0.824689|    0.012020|
|         408|   -3.615726|   -6.820441|    0.824699|    0.012019|
|         409|   -3.705606|   -6.828268|    0.824710|    0.012019|
|         410|   -3.783137|   -6.835029|    0.824721|    0.012018|
|         411|   -3.840101|   -6.840781|    0.824732|    0.012018|
|         412|   -3.877985|   -6.845573|    0.824743|    0.012018|
|         413|   -3.900377|   -6.849645|    0.824754|    0.012018|
|         414|   -3.910880|   -6.853342|    0.824764|    0.012018|
|         415|   -3.915189|   -6.856910|    0.824775|    0.012018|
|         416|   -3.919899|   -6.860390|    0.824785|    0.012017|
|         417|   -3.929513|   -6.863711|    0.824796|    0.012018|
|         418|   -3.945164|   -6.866829|    0.824806|    0.012018|
|         419|   -3.965166|   -6.869763|    0.824815|    0.012018|
|         420|   -3.986510|   -6.872585|    0.824825|    0.012018|
|         421|   -4.006669|   -6.875355|    0.824834|    0.012018|
|         422|   -4.024848|   -6.878061|    0.824843|    0.012019|
|         423|   -4.041889|   -6.880631|    0.824851|    0.012019|
|         424|   -4.059130|   -6.882950|    0.824859|    0.012020|
|         425|   -4.077344|   -6.884921|    0.824867|    0.012020|
|         426|   -4.096375|   -6.886479|    0.824874|    0.012021|
|         427|   -4.115379|   -6.887607|    0.824880|    0.012022|
|         428|   -4.133267|   -6.888317|    0.824887|    0.012022|
|         429|   -4.149078|   -6.888613|    0.824892|    0.012023|
|         430|   -4.162184|   -6.888553|    0.824897|    0.012024|
|         431|   -4.172417|   -6.888226|    0.824902|    0.012025|
|         432|   -4.180127|   -6.887699|    0.824906|    0.012025|
|         433|   -4.186135|   -6.887041|    0.824910|    0.012026|
|         434|   -4.191549|   -6.886310|    0.824913|    0.012027|
|         435|   -4.197489|   -6.885540|    0.824916|    0.012028|
|         436|   -4.204849|   -6.884749|    0.824918|    0.012029|
|         437|   -4.214149|   -6.883958|    0.824919|    0.012030|
|         438|   -4.225488|   -6.883179|    0.824920|    0.012031|
|         439|   -4.238549|   -6.882364|    0.824920|    0.012032|
|         440|   -4.252645|   -6.881567|    0.824920|    0.012033|
|         441|   -4.266814|   -6.880777|    0.824919|    0.012034|
|         442|   -4.280000|   -6.880010|    0.824918|    0.012035|
|         443|   -4.291309|   -6.879264|    0.824916|    0.012037|
|         444|   -4.300279|   -6.878550|    0.824914|    0.012038|
|         445|   -4.307021|   -6.877892|    0.824911|    0.012039|
|         446|   -4.312169|   -6.877306|    0.824907|    0.012040|
|         447|   -4.316646|   -6.876807|    0.824903|    0.012041|
|         448|   -4.321385|   -6.876426|    0.824898|    0.012042|
|         449|   -4.327109|   -6.876138|    0.824892|    0.012043|
|         450|   -4.334220|   -6.875936|    0.824886|    0.012044|
|         451|   -4.342781|   -6.875817|    0.824879|    0.012045|
|         452|   -4.352573|   -6.875794|    0.824871|    0.012046|
|         453|   -4.363181|   -6.875893|    0.824862|    0.012046|
|         454|   -4.374109|   -6.876107|    0.824852|    0.012047|
|         455|   -4.384889|   -6.876445|    0.824842|    0.012048|
|         456|   -4.395178|   -6.876895|    0.824830|    0.012049|
|         457|   -4.404811|   -6.877420|    0.824818|    0.012049|
|         458|   -4.413808|   -6.878036|    0.824805|    0.012050|
|         459|   -4.422330|   -6.878771|    0.824790|    0.012050|
|         460|   -4.430615|   -6.879646|    0.824775|    0.012051|
|         461|   -4.438911|   -6.880712|    0.824759|    0.012051|
|         462|   -4.447426|   -6.882030|    0.824743|    0.012051|
|         463|   -4.456297|   -6.883651|    0.824725|    0.012051|
|         464|   -4.465594|   -6.885639|    0.824707|    0.012051|
|         465|   -4.475331|   -6.888050|    0.824689|    0.012051|
|         466|   -4.485485|   -6.890955|    0.824670|    0.012051|
|         467|   -4.496019|   -6.894408|    0.824650|    0.012051|
|         468|   -4.506898|   -6.898473|    0.824630|    0.012050|
|         469|   -4.518099|   -6.903211|    0.824610|    0.012050|
|         470|   -4.529614|   -6.908681|    0.824590|    0.012049|
|         471|   -4.541439|   -6.914928|    0.824570|    0.012049|
|         472|   -4.553578|   -6.921979|    0.824551|    0.012048|
|         473|   -4.566027|   -6.929837|    0.824532|    0.012047|
|         474|   -4.578769|   -6.938478|    0.824513|    0.012047|
|         475|   -4.591775|   -6.947850|    0.824496|    0.012046|
|         476|   -4.605001|   -6.957861|    0.824479|    0.012045|
|         477|   -4.618388|   -6.968381|    0.824463|    0.012044|
|         478|   -4.631868|   -6.979231|    0.824448|    0.012043|
|         479|   -4.645364|   -6.990187|    0.824434|    0.012041|
|         480|   -4.658796|   -7.000969|    0.824422|    0.012040|
|         481|   -4.672082|   -7.011250|    0.824411|    0.012039|
|         482|   -4.685142|   -7.020688|    0.824402|    0.012038|
|         483|   -4.697898|   -7.028934|    0.824394|    0.012036|
|         484|   -4.710278|   -7.035657|    0.824388|    0.012035|
|         485|   -4.722216|   -7.040582|    0.824383|    0.012033|
|         486|   -4.733654|   -7.043518|    0.824380|    0.012032|
|         487|   -4.744548|   -7.044412|    0.824379|    0.012030|
|         488|   -4.754863|   -7.043350|    0.824379|    0.012029|
|         489|   -4.764580|   -7.040543|    0.824381|    0.012027|
|         490|   -4.773692|   -7.036279|    0.824384|    0.012025|
|         491|   -4.782207|   -7.030940|    0.824388|    0.012024|
|         492|   -4.790141|   -7.024924|    0.824395|    0.012022|
|         493|   -4.797522|   -7.018630|    0.824402|    0.012020|
|         494|   -4.804384|   -7.012423|    0.824411|    0.012018|
|         495|   -4.810764|   -7.006625|    0.824421|    0.012016|
|         496|   -4.816700|   -7.001516|    0.824432|    0.012014|
|         497|   -4.822229|   -6.997318|    0.824444|    0.012012|
|         498|   -4.827384|   -6.994218|    0.824457|    0.012010|
|         499|   -4.832196|   -6.992359|    0.824471|    0.012008|
|         500|   -4.836690|   -6.991842|    0.824485|    0.012006|
|         501|   -4.840886|   -6.992735|    0.824501|    0.011969|
+-----------------------------------------------------------------------+
|Fixed CL Mode                           |Value                         |
+-----------------------------------------------------------------------+
|Current CL                              |0.824501                      |
|Target CL                               |0.824                         |
|Previous AOA                            |2.78915                       |
|Changed AoA by                          |-0.00242673                   |
+-----------------------------------------------------------------------+
+----------------------------------------------------------------+
|  Inner_Iter|    rms[Rho]|     rms[nu]|          CL|          CD|
+----------------------------------------------------------------+
|         502|   -2.808334|   -6.796072|    0.824517|    0.011967|
|         503|   -3.192053|   -6.876928|    0.824533|    0.011965|
|         504|   -3.433766|   -6.909961|    0.824550|    0.011963|
|         505|   -3.511390|   -6.932572|    0.824567|    0.011961|
|         506|   -3.564808|   -6.952114|    0.824584|    0.011959|
|         507|   -3.634410|   -6.970308|    0.824601|    0.011957|
|         508|   -3.720681|   -6.987575|    0.824619|    0.011956|
|         509|   -3.811337|   -7.004075|    0.824636|    0.011954|
|         510|   -3.890443|   -7.019780|    0.824653|    0.011952|
|         511|   -3.949627|   -7.034383|    0.824670|    0.011951|
|         512|   -3.989886|   -7.047530|    0.824686|    0.011949|
|         513|   -4.014285|   -7.059156|    0.824702|    0.011948|
|         514|   -4.026098|   -7.069429|    0.824718|    0.011946|
|         515|   -4.031069|   -7.078441|    0.824733|    0.011945|
|         516|   -4.036111|   -7.086030|    0.824747|    0.011944|
|         517|   -4.046045|   -7.091891|    0.824761|    0.011943|
|         518|   -4.062183|   -7.095844|    0.824774|    0.011942|
|         519|   -4.082881|   -7.097925|    0.824787|    0.011941|
|         520|   -4.105079|   -7.098363|    0.824798|    0.011941|
|         521|   -4.126167|   -7.097414|    0.824809|    0.011940|
|         522|   -4.145308|   -7.095282|    0.824818|    0.011939|
|         523|   -4.163361|   -7.092074|    0.824827|    0.011939|
|         524|   -4.181710|   -7.087892|    0.824835|    0.011939|
|         525|   -4.201138|   -7.082858|    0.824842|    0.011939|
|         526|   -4.221430|   -7.077136|    0.824848|    0.011938|
|         527|   -4.241626|   -7.070926|    0.824853|    0.011939|
|         528|   -4.260492|   -7.064447|    0.824857|    0.011939|
|         529|   -4.276937|   -7.057863|    0.824860|    0.011939|
|         530|   -4.290264|   -7.051400|    0.824862|    0.011939|
|         531|   -4.300312|   -7.045216|    0.824863|    0.011940|
|         532|   -4.307513|   -7.039428|    0.824864|    0.011940|
|         533|   -4.312825|   -7.034112|    0.824863|    0.011941|
|         534|   -4.317497|   -7.029291|    0.824862|    0.011942|
|         535|   -4.322766|   -7.024959|    0.824859|    0.011943|
|         536|   -4.329590|   -7.021054|    0.824856|    0.011944|
|         537|   -4.338508|   -7.017534|    0.824852|    0.011945|
|         538|   -4.349596|   -7.014324|    0.824847|    0.011946|
|         539|   -4.362483|   -7.011338|    0.824842|    0.011947|
|         540|   -4.376403|   -7.008495|    0.824836|    0.011949|
|         541|   -4.390300|   -7.005707|    0.824829|    0.011950|
|         542|   -4.403030|   -7.002921|    0.824822|    0.011952|
|         543|   -4.413644|   -7.000095|    0.824814|    0.011954|
|         544|   -4.421681|   -6.997206|    0.824805|    0.011955|
|         545|   -4.427313|   -6.994240|    0.824796|    0.011957|
|         546|   -4.431270|   -6.991192|    0.824786|    0.011959|
|         547|   -4.434573|   -6.988062|    0.824776|    0.011961|
|         548|   -4.438228|   -6.984874|    0.824765|    0.011963|
|         549|   -4.442998|   -6.981647|    0.824754|    0.011965|
|         550|   -4.449297|   -6.978355|    0.824742|    0.011968|
|         551|   -4.457184|   -6.974993|    0.824729|    0.011970|
|         552|   -4.466427|   -6.971569|    0.824716|    0.011972|
|         553|   -4.476596|   -6.968107|    0.824703|    0.011975|
|         554|   -4.487186|   -6.964622|    0.824688|    0.011977|
|         555|   -4.497724|   -6.961120|    0.824674|    0.011979|
|         556|   -4.507868|   -6.957565|    0.824658|    0.011982|
|         557|   -4.517459|   -6.953915|    0.824642|    0.011984|
|         558|   -4.526526|   -6.950185|    0.824625|    0.011987|
|         559|   -4.535241|   -6.946345|    0.824608|    0.011989|
|         560|   -4.543851|   -6.942413|    0.824590|    0.011992|
|         561|   -4.552613|   -6.938416|    0.824571|    0.011994|
|         562|   -4.561740|   -6.934386|    0.824552|    0.011997|
|         563|   -4.571377|   -6.930361|    0.824532|    0.011999|
|         564|   -4.581596|   -6.926399|    0.824512|    0.012001|
|         565|   -4.592411|   -6.922509|    0.824492|    0.012004|
|         566|   -4.603799|   -6.918759|    0.824471|    0.012006|
|         567|   -4.615718|   -6.915222|    0.824450|    0.012008|
|         568|   -4.628129|   -6.911970|    0.824428|    0.012011|
|         569|   -4.641005|   -6.909067|    0.824407|    0.012013|
|         570|   -4.654326|   -6.906576|    0.824385|    0.012015|
|         571|   -4.668084|   -6.904552|    0.824364|    0.012017|
|         572|   -4.682269|   -6.903043|    0.824343|    0.012019|
|         573|   -4.696860|   -6.902082|    0.824322|    0.012021|
|         574|   -4.711822|   -6.901688|    0.824302|    0.012023|
|         575|   -4.727095|   -6.901862|    0.824282|    0.012024|
|         576|   -4.742597|   -6.902591|    0.824263|    0.012026|
|         577|   -4.758221|   -6.903838|    0.824245|    0.012028|
|         578|   -4.773840|   -6.905551|    0.824227|    0.012029|
|         579|   -4.789309|   -6.907659|    0.824211|    0.012031|
|         580|   -4.804468|   -6.910074|    0.824195|    0.012032|
|         581|   -4.819155|   -6.912696|    0.824181|    0.012033|
|         582|   -4.833204|   -6.915406|    0.824168|    0.012034|
|         583|   -4.846456|   -6.918090|    0.824156|    0.012035|
|         584|   -4.858769|   -6.920622|    0.824146|    0.012036|
|         585|   -4.870022|   -6.922886|    0.824136|    0.012037|
|         586|   -4.880125|   -6.924769|    0.824129|    0.012038|
|         587|   -4.889025|   -6.926186|    0.824122|    0.012038|
|         588|   -4.896711|   -6.927076|    0.824117|    0.012039|
|         589|   -4.903209|   -6.927408|    0.824113|    0.012039|
|         590|   -4.908587|   -6.927182|    0.824110|    0.012039|
|         591|   -4.912940|   -6.926430|    0.824109|    0.012039|
|         592|   -4.916390|   -6.925213|    0.824109|    0.012039|
|         593|   -4.919071|   -6.923619|    0.824110|    0.012039|
|         594|   -4.921122|   -6.921749|    0.824113|    0.012039|
|         595|   -4.922682|   -6.919717|    0.824116|    0.012038|
|         596|   -4.923879|   -6.917639|    0.824120|    0.012038|
|         597|   -4.924830|   -6.915629|    0.824126|    0.012037|
|         598|   -4.925635|   -6.913792|    0.824132|    0.012036|
|         599|   -4.926381|   -6.912221|    0.824140|    0.012035|
|         600|   -4.927137|   -6.910989|    0.824148|    0.012034|
|         601|   -4.927957|   -6.910151|    0.824156|    0.012023|
+-----------------------------------------------------------------------+
|Fixed CL Mode                           |Value                         |
+-----------------------------------------------------------------------+
|Current CL                              |0.824156                      |
|Target CL                               |0.824                         |
|Previous AOA                            |2.78673                       |
|Changed AoA by                          |-0.000737909                  |
+-----------------------------------------------------------------------+
+----------------------------------------------------------------+
|  Inner_Iter|    rms[Rho]|     rms[nu]|          CL|          CD|
+----------------------------------------------------------------+
|         602|   -3.325225|   -6.889702|    0.824166|    0.012022|
|         603|   -3.706709|   -6.899407|    0.824176|    0.012020|
|         604|   -3.941193|   -6.902816|    0.824186|    0.012019|
|         605|   -4.014283|   -6.905323|    0.824197|    0.012018|
|         606|   -4.065542|   -6.907705|    0.824208|    0.012016|
|         607|   -4.132830|   -6.910087|    0.824220|    0.012015|
|         608|   -4.215979|   -6.912460|    0.824231|    0.012013|
|         609|   -4.303387|   -6.914777|    0.824243|    0.012012|
|         610|   -4.380916|   -6.916970|    0.824255|    0.012010|
|         611|   -4.441446|   -6.918945|    0.824267|    0.012008|
|         612|   -4.485462|   -6.920608|    0.824278|    0.012007|
|         613|   -4.514616|   -6.921886|    0.824290|    0.012005|
|         614|   -4.530717|   -6.922727|    0.824301|    0.012003|
|         615|   -4.538514|   -6.923088|    0.824312|    0.012002|
|         616|   -4.544696|   -6.922936|    0.824322|    0.012000|
|         617|   -4.554374|   -6.922255|    0.824333|    0.011998|
|         618|   -4.569293|   -6.921056|    0.824342|    0.011997|
|         619|   -4.588285|   -6.919384|    0.824352|    0.011995|
|         620|   -4.608812|   -6.917307|    0.824361|    0.011993|
|         621|   -4.628741|   -6.914906|    0.824369|    0.011992|
|         622|   -4.647484|   -6.912271|    0.824376|    0.011990|
|         623|   -4.665825|   -6.909492|    0.824383|    0.011988|
|         624|   -4.684846|   -6.906658|    0.824390|    0.011987|
|         625|   -4.704949|   -6.903858|    0.824396|    0.011985|
|         626|   -4.725552|   -6.901176|    0.824401|    0.011984|
|         627|   -4.745391|   -6.898690|    0.824405|    0.011982|
|         628|   -4.763064|   -6.896472|    0.824409|    0.011981|
|         629|   -4.777516|   -6.894580|    0.824412|    0.011980|
|         630|   -4.788311|   -6.893063|    0.824415|    0.011978|
|         631|   -4.795685|   -6.891961|    0.824417|    0.011977|
|         632|   -4.800458|   -6.891294|    0.824419|    0.011976|
|         633|   -4.803821|   -6.891071|    0.824420|    0.011975|
|         634|   -4.807050|   -6.891289|    0.824421|    0.011974|
|         635|   -4.811243|   -6.891931|    0.824421|    0.011973|
|         636|   -4.817127|   -6.892975|    0.824420|    0.011972|
|         637|   -4.824983|   -6.894388|    0.824420|    0.011971|
|         638|   -4.834652|   -6.896130|    0.824419|    0.011971|
|         639|   -4.845577|   -6.898156|    0.824418|    0.011970|
|         640|   -4.856892|   -6.900418|    0.824416|    0.011969|
|         641|   -4.867559|   -6.902871|    0.824414|    0.011969|
|         642|   -4.876576|   -6.905465|    0.824412|    0.011969|
|         643|   -4.883235|   -6.908156|    0.824410|    0.011968|
|         644|   -4.887329|   -6.910904|    0.824408|    0.011968|
|         645|   -4.889199|   -6.913673|    0.824406|    0.011968|
|         646|   -4.889597|   -6.916434|    0.824404|    0.011968|
|         647|   -4.889438|   -6.919162|    0.824401|    0.011968|
|         648|   -4.889548|   -6.921843|    0.824399|    0.011968|
|         649|   -4.890506|   -6.924466|    0.824396|    0.011969|
|         650|   -4.892588|   -6.927024|    0.824394|    0.011969|
|         651|   -4.895788|   -6.929512|    0.824392|    0.011970|
|         652|   -4.899888|   -6.931931|    0.824389|    0.011970|
|         653|   -4.904555|   -6.934281|    0.824387|    0.011971|
|         654|   -4.909438|   -6.936568|    0.824384|    0.011972|
|         655|   -4.914244|   -6.938796|    0.824382|    0.011973|
|         656|   -4.918799|   -6.940963|    0.824379|    0.011974|
|         657|   -4.923059|   -6.943071|    0.824376|    0.011975|
|         658|   -4.927100|   -6.945115|    0.824374|    0.011976|
|         659|   -4.931071|   -6.947091|    0.824371|    0.011978|
|         660|   -4.935154|   -6.948992|    0.824368|    0.011979|
|         661|   -4.939517|   -6.950813|    0.824365|    0.011980|
|         662|   -4.944294|   -6.952547|    0.824362|    0.011982|
|         663|   -4.949569|   -6.954188|    0.824358|    0.011984|
|         664|   -4.955386|   -6.955735|    0.824355|    0.011985|
|         665|   -4.961755|   -6.957189|    0.824351|    0.011987|
|         666|   -4.968667|   -6.958555|    0.824347|    0.011989|
|         667|   -4.976110|   -6.959847|    0.824344|    0.011990|
|         668|   -4.984074|   -6.961081|    0.824339|    0.011992|
|         669|   -4.992556|   -6.962281|    0.824335|    0.011994|
|         670|   -5.001560|   -6.963475|    0.824331|    0.011996|
|         671|   -5.011095|   -6.964695|    0.824326|    0.011998|
|         672|   -5.021166|   -6.965976|    0.824322|    0.012000|
|         673|   -5.031776|   -6.967352|    0.824317|    0.012002|
|         674|   -5.042914|   -6.968856|    0.824312|    0.012004|
|         675|   -5.054561|   -6.970520|    0.824307|    0.012005|
|         676|   -5.066680|   -6.972368|    0.824303|    0.012007|
|         677|   -5.079223|   -6.974422|    0.824298|    0.012009|
|         678|   -5.092126|   -6.976692|    0.824293|    0.012011|
|         679|   -5.105313|   -6.979177|    0.824288|    0.012013|
|         680|   -5.118693|   -6.981868|    0.824284|    0.012015|
|         681|   -5.132164|   -6.984746|    0.824279|    0.012016|
|         682|   -5.145614|   -6.987783|    0.824275|    0.012018|
|         683|   -5.158917|   -6.990941|    0.824271|    0.012020|
|         684|   -5.171941|   -6.994174|    0.824267|    0.012021|
|         685|   -5.184548|   -6.997431|    0.824263|    0.012023|
|         686|   -5.196600|   -7.000655|    0.824260|    0.012024|
|         687|   -5.207964|   -7.003789|    0.824256|    0.012025|
|         688|   -5.218516|   -7.006777|    0.824254|    0.012027|
|         689|   -5.228149|   -7.009568|    0.824251|    0.012028|
|         690|   -5.236781|   -7.012115|    0.824249|    0.012029|
|         691|   -5.244354|   -7.014390|    0.824247|    0.012030|
|         692|   -5.250844|   -7.016365|    0.824245|    0.012031|
|         693|   -5.256255|   -7.018033|    0.824243|    0.012032|
|         694|   -5.260625|   -7.019398|    0.824242|    0.012033|
|         695|   -5.264018|   -7.020480|    0.824242|    0.012034|
|         696|   -5.266520|   -7.021311|    0.824241|    0.012034|
|         697|   -5.268235|   -7.021937|    0.824241|    0.012035|
|         698|   -5.269278|   -7.022407|    0.824241|    0.012035|
|         699|   -5.269769|   -7.022780|    0.824241|    0.012036|
|         700|   -5.269830|   -7.023114|    0.824242|    0.012036|
|         701|   -5.269578|   -7.023467|    0.824243|    0.012019|
+-----------------------------------------------------------------------+
|Fixed CL Mode                           |Value                         |
+-----------------------------------------------------------------------+
|Current CL                              |0.824243                      |
|Target CL                               |0.824                         |
|Previous AOA                            |2.78599                       |
|Changed AoA by                          |-0.00121036                   |
+-----------------------------------------------------------------------+
+----------------------------------------------------------------+
|  Inner_Iter|    rms[Rho]|     rms[nu]|          CL|          CD|
+----------------------------------------------------------------+
|         702|   -3.110515|   -6.947014|    0.824244|    0.012019|
|         703|   -3.494808|   -6.982993|    0.824246|    0.012019|
|         704|   -3.737633|   -6.994987|    0.824247|    0.012019|
|         705|   -3.815322|   -7.002140|    0.824249|    0.012019|
|         706|   -3.868440|   -7.007730|    0.824250|    0.012019|
|         707|   -3.937846|   -7.012539|    0.824252|    0.012019|
|         708|   -4.024076|   -7.016820|    0.824254|    0.012018|
|         709|   -4.114804|   -7.020722|    0.824256|    0.012018|
|         710|   -4.193991|   -7.024335|    0.824258|    0.012018|
|         711|   -4.253159|   -7.027678|    0.824261|    0.012017|
|         712|   -4.293270|   -7.030769|    0.824263|    0.012017|
|         713|   -4.317437|   -7.033697|    0.824265|    0.012016|
|         714|   -4.329017|   -7.036581|    0.824267|    0.012015|
|         715|   -4.333830|   -7.039507|    0.824268|    0.012015|
|         716|   -4.338819|   -7.042488|    0.824270|    0.012014|
|         717|   -4.348798|   -7.045493|    0.824272|    0.012013|
|         718|   -4.365049|   -7.048499|    0.824273|    0.012013|
|         719|   -4.385881|   -7.051507|    0.824275|    0.012012|
|         720|   -4.408170|   -7.054533|    0.824276|    0.012011|
|         721|   -4.429241|   -7.057593|    0.824277|    0.012010|
|         722|   -4.448214|   -7.060681|    0.824278|    0.012009|
|         723|   -4.465949|   -7.063775|    0.824279|    0.012008|
|         724|   -4.483860|   -7.066842|    0.824279|    0.012007|
|         725|   -4.502773|   -7.069852|    0.824279|    0.012006|
|         726|   -4.522529|   -7.072791|    0.824279|    0.012005|
|         727|   -4.542231|   -7.075657|    0.824279|    0.012004|
|         728|   -4.560713|   -7.078461|    0.824279|    0.012003|
|         729|   -4.576940|   -7.081219|    0.824279|    0.012002|
|         730|   -4.590241|   -7.083953|    0.824278|    0.012001|
|         731|   -4.600448|   -7.086690|    0.824277|    0.012000|
|         732|   -4.607961|   -7.089460|    0.824276|    0.011999|
|         733|   -4.613694|   -7.092285|    0.824275|    0.011998|
|         734|   -4.618864|   -7.095169|    0.824273|    0.011997|
|         735|   -4.624693|   -7.098119|    0.824272|    0.011996|
|         736|   -4.632154|   -7.101144|    0.824270|    0.011995|
|         737|   -4.641817|   -7.104226|    0.824268|    0.011994|
|         738|   -4.653800|   -7.107344|    0.824266|    0.011993|
|         739|   -4.667774|   -7.110476|    0.824264|    0.011992|
|         740|   -4.682999|   -7.113596|    0.824261|    0.011991|
|         741|   -4.698420|   -7.116675|    0.824259|    0.011990|
|         742|   -4.712847|   -7.119691|    0.824256|    0.011989|
|         743|   -4.725247|   -7.122623|    0.824253|    0.011988|
|         744|   -4.735052|   -7.125455|    0.824250|    0.011987|
|         745|   -4.742348|   -7.128177|    0.824247|    0.011986|
|         746|   -4.747826|   -7.130776|    0.824244|    0.011986|
|         747|   -4.752522|   -7.133245|    0.824240|    0.011985|
|         748|   -4.757496|   -7.135574|    0.824237|    0.011984|
|         749|   -4.763575|   -7.137760|    0.824233|    0.011983|
|         750|   -4.771228|   -7.139799|    0.824228|    0.011983|
|         751|   -4.780542|   -7.141688|    0.824224|    0.011982|
|         752|   -4.791283|   -7.143447|    0.824219|    0.011981|
|         753|   -4.802991|   -7.145094|    0.824214|    0.011981|
|         754|   -4.815098|   -7.146607|    0.824209|    0.011980|
|         755|   -4.827059|   -7.147980|    0.824204|    0.011980|
|         756|   -4.838457|   -7.149216|    0.824198|    0.011980|
|         757|   -4.849079|   -7.150320|    0.824192|    0.011979|
|         758|   -4.858922|   -7.151307|    0.824185|    0.011979|
|         759|   -4.868156|   -7.152200|    0.824178|    0.011979|
|         760|   -4.877044|   -7.153027|    0.824171|    0.011979|
|         761|   -4.885867|   -7.153822|    0.824164|    0.011978|
|         762|   -4.894858|   -7.154627|    0.824156|    0.011978|
|         763|   -4.904174|   -7.155486|    0.824148|    0.011978|
|         764|   -4.913887|   -7.156443|    0.824140|    0.011978|
|         765|   -4.924004|   -7.157546|    0.824132|    0.011978|
|         766|   -4.934488|   -7.158846|    0.824123|    0.011979|
|         767|   -4.945282|   -7.160396|    0.824114|    0.011979|
|         768|   -4.956335|   -7.162248|    0.824106|    0.011979|
|         769|   -4.967608|   -7.164449|    0.824097|    0.011979|
|         770|   -4.979077|   -7.167046|    0.824088|    0.011980|
|         771|   -4.990730|   -7.170072|    0.824080|    0.011980|
|         772|   -5.002556|   -7.173550|    0.824071|    0.011981|
|         773|   -5.014538|   -7.177491|    0.824063|    0.011981|
|         774|   -5.026646|   -7.181889|    0.824055|    0.011982|
|         775|   -5.038828|   -7.186719|    0.824047|    0.011982|
|         776|   -5.051017|   -7.191938|    0.824040|    0.011983|
|         777|   -5.063129|   -7.197485|    0.824033|    0.011984|
|         778|   -5.075065|   -7.203280|    0.824027|    0.011985|
|         779|   -5.086723|   -7.209225|    0.824021|    0.011985|
|         780|   -5.097996|   -7.215223|    0.824016|    0.011986|
|         781|   -5.108783|   -7.221138|    0.824011|    0.011987|
|         782|   -5.118986|   -7.226838|    0.824007|    0.011988|
|         783|   -5.128523|   -7.232193|    0.824003|    0.011989|
|         784|   -5.137324|   -7.237086|    0.824000|    0.011990|
|         785|   -5.145337|   -7.241411|    0.823998|    0.011992|
|         786|   -5.152531|   -7.245093|    0.823996|    0.011993|
|         787|   -5.158895|   -7.248090|    0.823995|    0.011994|
|         788|   -5.164442|   -7.250387|    0.823995|    0.011995|
|         789|   -5.169206|   -7.252020|    0.823995|    0.011996|
|         790|   -5.173236|   -7.253038|    0.823996|    0.011997|
|         791|   -5.176598|   -7.253530|    0.823997|    0.011999|
|         792|   -5.179368|   -7.253605|    0.823999|    0.012000|
|         793|   -5.181626|   -7.253390|    0.824002|    0.012001|
|         794|   -5.183452|   -7.253017|    0.824004|    0.012002|
|         795|   -5.184926|   -7.252620|    0.824008|    0.012004|
|         796|   -5.186118|   -7.252323|    0.824011|    0.012005|
|         797|   -5.187092|   -7.252238|    0.824015|    0.012006|
|         798|   -5.187901|   -7.252460|    0.824020|    0.012007|
|         799|   -5.188590|   -7.253066|    0.824024|    0.012008|
|         800|   -5.189192|   -7.254109|    0.824029|    0.012009|
|         801|   -5.189730|   -7.255621|    0.824034|    0.012008|
+-----------------------------------------------------------------------+
|Fixed CL Mode                           |Value                         |
+-----------------------------------------------------------------------+
|Current CL                              |0.824034                      |
|Target CL                               |0.824                         |
|Previous AOA                            |2.78478                       |
|Changed AoA by                          |-0.000144428                  |
+-----------------------------------------------------------------------+
+----------------------------------------------------------------+
|  Inner_Iter|    rms[Rho]|     rms[nu]|          CL|          CD|
+----------------------------------------------------------------+
|         802|   -4.032860|   -7.253598|    0.824039|    0.012009|
|         803|   -4.409662|   -7.257984|    0.824044|    0.012010|
|         804|   -4.630883|   -7.261457|    0.824050|    0.012011|
|         805|   -4.694659|   -7.265059|    0.824055|    0.012012|
|         806|   -4.738544|   -7.268874|    0.824060|    0.012013|
|         807|   -4.795592|   -7.272843|    0.824066|    0.012014|
|         808|   -4.863342|   -7.276870|    0.824071|    0.012015|
|         809|   -4.930257|   -7.280852|    0.824076|    0.012015|
|         810|   -4.985624|   -7.284676|    0.824081|    0.012016|
|         811|   -5.026471|   -7.288230|    0.824086|    0.012017|
|         812|   -5.055163|   -7.291408|    0.824091|    0.012017|
|         813|   -5.073997|   -7.294121|    0.824096|    0.012018|
|         814|   -5.084667|   -7.296300|    0.824100|    0.012018|
|         815|   -5.089895|   -7.297901|    0.824104|    0.012019|
|         816|   -5.093193|   -7.298903|    0.824108|    0.012019|
|         817|   -5.097271|   -7.299310|    0.824111|    0.012020|
|         818|   -5.103117|   -7.299158|    0.824114|    0.012020|
|         819|   -5.110260|   -7.298508|    0.824117|    0.012020|
|         820|   -5.117670|   -7.297446|    0.824120|    0.012020|
|         821|   -5.124616|   -7.296069|    0.824122|    0.012020|
|         822|   -5.130996|   -7.294484|    0.824124|    0.012021|
|         823|   -5.137108|   -7.292802|    0.824125|    0.012021|
|         824|   -5.143197|   -7.291130|    0.824126|    0.012020|
|         825|   -5.149187|   -7.289574|    0.824127|    0.012020|
|         826|   -5.154707|   -7.288230|    0.824127|    0.012020|
|         827|   -5.159306|   -7.287184|    0.824127|    0.012020|
|         828|   -5.162665|   -7.286507|    0.824127|    0.012020|
|         829|   -5.164707|   -7.286262|    0.824126|    0.012020|
|         830|   -5.165584|   -7.286494|    0.824125|    0.012019|
|         831|   -5.165609|   -7.287239|    0.824124|    0.012019|
|         832|   -5.165179|   -7.288518|    0.824123|    0.012018|
|         833|   -5.164697|   -7.290340|    0.824121|    0.012018|
|         834|   -5.164516|   -7.292699|    0.824119|    0.012017|
|         835|   -5.164887|   -7.295579|    0.824116|    0.012017|
|         836|   -5.165936|   -7.298952|    0.824114|    0.012016|
|         837|   -5.167660|   -7.302778|    0.824112|    0.012016|
|         838|   -5.169952|   -7.307013|    0.824109|    0.012015|
|         839|   -5.172635|   -7.311603|    0.824106|    0.012014|
|         840|   -5.175500|   -7.316490|    0.824103|    0.012014|
|         841|   -5.178347|   -7.321614|    0.824100|    0.012013|
|         842|   -5.181018|   -7.326911|    0.824097|    0.012012|
|         843|   -5.183430|   -7.332322|    0.824094|    0.012012|
|         844|   -5.185578|   -7.337789|    0.824091|    0.012011|
|         845|   -5.187535|   -7.343257|    0.824088|    0.012010|
|         846|   -5.189422|   -7.348682|    0.824086|    0.012010|
|         847|   -5.191376|   -7.354024|    0.824083|    0.012009|
|         848|   -5.193519|   -7.359252|    0.824080|    0.012008|
|         849|   -5.195928|   -7.364343|    0.824078|    0.012007|
|         850|   -5.198635|   -7.369285|    0.824075|    0.012007|
|         851|   -5.201617|   -7.374069|    0.824073|    0.012006|
|         852|   -5.204818|   -7.378695|    0.824071|    0.012006|
|         853|   -5.208163|   -7.383164|    0.824069|    0.012005|
|         854|   -5.211572|   -7.387480|    0.824067|    0.012004|
|         855|   -5.214978|   -7.391644|    0.824066|    0.012004|
|         856|   -5.218334|   -7.395655|    0.824064|    0.012003|
|         857|   -5.221612|   -7.399507|    0.824063|    0.012003|
|         858|   -5.224803|   -7.403187|    0.824062|    0.012003|
|         859|   -5.227909|   -7.406673|    0.824061|    0.012002|
|         860|   -5.230934|   -7.409940|    0.824060|    0.012002|
|         861|   -5.233881|   -7.412954|    0.824059|    0.012002|
|         862|   -5.236745|   -7.415679|    0.824059|    0.012001|
|         863|   -5.239514|   -7.418075|    0.824058|    0.012001|
|         864|   -5.242168|   -7.420106|    0.824058|    0.012001|
|         865|   -5.244681|   -7.421740|    0.824057|    0.012001|
|         866|   -5.247027|   -7.422951|    0.824057|    0.012001|
|         867|   -5.249180|   -7.423726|    0.824057|    0.012001|
|         868|   -5.251115|   -7.424066|    0.824057|    0.012000|
|         869|   -5.252810|   -7.423985|    0.824057|    0.012000|
|         870|   -5.254248|   -7.423513|    0.824057|    0.012000|
|         871|   -5.255414|   -7.422694|    0.824057|    0.012001|
|         872|   -5.256294|   -7.421585|    0.824057|    0.012001|
|         873|   -5.256882|   -7.420252|    0.824057|    0.012001|
|         874|   -5.257170|   -7.418768|    0.824057|    0.012001|
|         875|   -5.257155|   -7.417211|    0.824057|    0.012001|
|         876|   -5.256839|   -7.415655|    0.824057|    0.012001|
|         877|   -5.256225|   -7.414174|    0.824058|    0.012002|
|         878|   -5.255323|   -7.412834|    0.824058|    0.012002|
|         879|   -5.254147|   -7.411692|    0.824058|    0.012002|
|         880|   -5.252713|   -7.410794|    0.824058|    0.012002|
|         881|   -5.251046|   -7.410175|    0.824058|    0.012003|
|         882|   -5.249170|   -7.409856|    0.824058|    0.012003|
|         883|   -5.247116|   -7.409848|    0.824058|    0.012004|
|         884|   -5.244916|   -7.410146|    0.824058|    0.012004|
|         885|   -5.242604|   -7.410734|    0.824058|    0.012004|
|         886|   -5.240216|   -7.411586|    0.824058|    0.012005|
|         887|   -5.237788|   -7.412666|    0.824059|    0.012005|
|         888|   -5.235357|   -7.413930|    0.824059|    0.012006|
|         889|   -5.232960|   -7.415328|    0.824059|    0.012006|
|         890|   -5.230633|   -7.416808|    0.824059|    0.012007|
|         891|   -5.228408|   -7.418316|    0.824060|    0.012007|
|         892|   -5.226320|   -7.419800|    0.824060|    0.012008|
|         893|   -5.224399|   -7.421214|    0.824060|    0.012008|
|         894|   -5.222673|   -7.422516|    0.824061|    0.012009|
|         895|   -5.221170|   -7.423675|    0.824061|    0.012009|
|         896|   -5.219914|   -7.424670|    0.824062|    0.012010|
|         897|   -5.218927|   -7.425489|    0.824062|    0.012010|
|         898|   -5.218229|   -7.426132|    0.824063|    0.012011|
|         899|   -5.217836|   -7.426609|    0.824063|    0.012011|
|         900|   -5.217765|   -7.426937|    0.824064|    0.012012|
|         901|   -5.218027|   -7.427142|    0.824065|    0.012008|
+-----------------------------------------------------------------------+
|Fixed CL Mode                           |Value                         |
+-----------------------------------------------------------------------+
|Current CL                              |0.824065                      |
|Target CL                               |0.824                         |
|Previous AOA                            |2.78463                       |
[...]
|        5298|   -6.041511|   -7.936181|    0.824240|    0.012016|
|        5299|   -6.048298|   -7.939981|    0.824240|    0.012016|
|        5300|   -6.054672|   -7.943834|    0.824240|    0.012016|
|        5301|   -6.060597|   -7.947755|    0.824240|    0.012016|
|        5302|   -6.066045|   -7.951758|    0.824240|    0.012016|
|        5303|   -6.071001|   -7.955854|    0.824240|    0.012016|
|        5304|   -6.075463|   -7.960054|    0.824240|    0.012016|
|        5305|   -6.079441|   -7.964362|    0.824241|    0.012016|
|        5306|   -6.082957|   -7.968783|    0.824241|    0.012016|
|        5307|   -6.086046|   -7.973321|    0.824241|    0.012016|
|        5308|   -6.088748|   -7.977976|    0.824241|    0.012016|
|        5309|   -6.091114|   -7.982750|    0.824241|    0.012016|
|        5310|   -6.093200|   -7.987643|    0.824241|    0.012016|
|        5311|   -6.095065|   -7.992657|    0.824241|    0.012016|
|        5312|   -6.096767|   -7.997792|    0.824241|    0.012016|
|        5313|   -6.098365|   -8.003050|    0.824242|    0.012016|
|        5314|   -6.099917|   -8.008435|    0.824242|    0.012016|
|        5315|   -6.101477|   -8.013948|    0.824242|    0.012016|
|        5316|   -6.103095|   -8.019595|    0.824242|    0.012016|
|        5317|   -6.104814|   -8.025377|    0.824242|    0.012016|
|        5318|   -6.106674|   -8.031300|    0.824242|    0.012016|
|        5319|   -6.108706|   -8.037366|    0.824243|    0.012016|
|        5320|   -6.110936|   -8.043578|    0.824243|    0.012016|
|        5321|   -6.113383|   -8.049937|    0.824243|    0.012016|
|        5322|   -6.116058|   -8.056444|    0.824243|    0.012016|
|        5323|   -6.118967|   -8.063099|    0.824243|    0.012016|
|        5324|   -6.122108|   -8.069900|    0.824244|    0.012016|
|        5325|   -6.125473|   -8.076847|    0.824244|    0.012016|
|        5326|   -6.129047|   -8.083934|    0.824244|    0.012016|
|        5327|   -6.132810|   -8.091157|    0.824244|    0.012016|
|        5328|   -6.136736|   -8.098510|    0.824244|    0.012017|
|        5329|   -6.140793|   -8.105985|    0.824244|    0.012017|
|        5330|   -6.144945|   -8.113572|    0.824245|    0.012017|
|        5331|   -6.149154|   -8.121265|    0.824245|    0.012017|
|        5332|   -6.153377|   -8.129055|    0.824245|    0.012017|
|        5333|   -6.157573|   -8.136930|    0.824245|    0.012017|
|        5334|   -6.161696|   -8.144875|    0.824245|    0.012017|
|        5335|   -6.165705|   -8.152877|    0.824246|    0.012017|
|        5336|   -6.169562|   -8.160925|    0.824246|    0.012017|
|        5337|   -6.173231|   -8.169007|    0.824246|    0.012017|
|        5338|   -6.176683|   -8.177112|    0.824246|    0.012017|
|        5339|   -6.179895|   -8.185231|    0.824246|    0.012018|
|        5340|   -6.182850|   -8.193360|    0.824246|    0.012018|
|        5341|   -6.185543|   -8.201494|    0.824247|    0.012018|
|        5342|   -6.187974|   -8.209630|    0.824247|    0.012018|
|        5343|   -6.190152|   -8.217769|    0.824247|    0.012018|
|        5344|   -6.192095|   -8.225914|    0.824247|    0.012018|
|        5345|   -6.193828|   -8.234067|    0.824247|    0.012018|
|        5346|   -6.195382|   -8.242236|    0.824247|    0.012018|
|        5347|   -6.196794|   -8.250427|    0.824248|    0.012018|
|        5348|   -6.198104|   -8.258646|    0.824248|    0.012018|
|        5349|   -6.199354|   -8.266903|    0.824248|    0.012018|
|        5350|   -6.200589|   -8.275205|    0.824248|    0.012018|
|        5351|   -6.201853|   -8.283561|    0.824248|    0.012018|
|        5352|   -6.203190|   -8.291978|    0.824248|    0.012018|
|        5353|   -6.204640|   -8.300463|    0.824248|    0.012018|
|        5354|   -6.206244|   -8.309021|    0.824248|    0.012018|
|        5355|   -6.208035|   -8.317658|    0.824248|    0.012018|
|        5356|   -6.210047|   -8.326376|    0.824248|    0.012018|
|        5357|   -6.212306|   -8.335177|    0.824249|    0.012018|
|        5358|   -6.214835|   -8.344061|    0.824249|    0.012019|
|        5359|   -6.217653|   -8.353025|    0.824249|    0.012019|
|        5360|   -6.220772|   -8.362067|    0.824249|    0.012019|
|        5361|   -6.224202|   -8.371183|    0.824249|    0.012019|
|        5362|   -6.227946|   -8.380369|    0.824249|    0.012019|
|        5363|   -6.232001|   -8.389618|    0.824249|    0.012019|
|        5364|   -6.236362|   -8.398925|    0.824249|    0.012019|
|        5365|   -6.241016|   -8.408278|    0.824249|    0.012018|
|        5366|   -6.245946|   -8.417666|    0.824249|    0.012018|
|        5367|   -6.251132|   -8.427076|    0.824249|    0.012018|
|        5368|   -6.256547|   -8.436491|    0.824249|    0.012018|
|        5369|   -6.262159|   -8.445892|    0.824249|    0.012018|
|        5370|   -6.267934|   -8.455262|    0.824249|    0.012018|
|        5371|   -6.273831|   -8.464582|    0.824249|    0.012018|
|        5372|   -6.279808|   -8.473831|    0.824249|    0.012018|
|        5373|   -6.285819|   -8.482990|    0.824249|    0.012018|
|        5374|   -6.291813|   -8.492038|    0.824249|    0.012018|
|        5375|   -6.297742|   -8.500955|    0.824249|    0.012018|
|        5376|   -6.303555|   -8.509722|    0.824249|    0.012018|
|        5377|   -6.309205|   -8.518321|    0.824249|    0.012018|
|        5378|   -6.314642|   -8.526738|    0.824249|    0.012018|
|        5379|   -6.319822|   -8.534958|    0.824249|    0.012018|
|        5380|   -6.324707|   -8.542975|    0.824249|    0.012018|
|        5381|   -6.329260|   -8.550784|    0.824250|    0.012018|
|        5382|   -6.333455|   -8.558381|    0.824250|    0.012018|
|        5383|   -6.337270|   -8.565768|    0.824250|    0.012018|
|        5384|   -6.340691|   -8.572948|    0.824250|    0.012017|
|        5385|   -6.343714|   -8.579926|    0.824250|    0.012017|
|        5386|   -6.346339|   -8.586708|    0.824250|    0.012017|
|        5387|   -6.348575|   -8.593301|    0.824250|    0.012017|
|        5388|   -6.350436|   -8.599711|    0.824250|    0.012017|
|        5389|   -6.351943|   -8.605945|    0.824250|    0.012017|
|        5390|   -6.353119|   -8.612004|    0.824250|    0.012017|
|        5391|   -6.353992|   -8.617891|    0.824250|    0.012017|
|        5392|   -6.354590|   -8.623604|    0.824251|    0.012017|
|        5393|   -6.354942|   -8.629137|    0.824251|    0.012017|
|        5394|   -6.355078|   -8.634482|    0.824251|    0.012016|
|        5395|   -6.355025|   -8.639627|    0.824251|    0.012016|
|        5396|   -6.354809|   -8.644556|    0.824251|    0.012016|
|        5397|   -6.354456|   -8.649253|    0.824251|    0.012016|
|        5398|   -6.353986|   -8.653697|    0.824252|    0.012016|
|        5399|   -6.353418|   -8.657869|    0.824252|    0.012016|
|        5400|   -6.352768|   -8.661750|    0.824252|    0.012016|
|        5401|   -6.352050|   -8.665322|    0.824252|    0.012016|
|        5402|   -6.351276|   -8.668570|    0.824252|    0.012016|
|        5403|   -6.350453|   -8.671483|    0.824253|    0.012016|
|        5404|   -6.349590|   -8.674055|    0.824253|    0.012016|
|        5405|   -6.348692|   -8.676288|    0.824253|    0.012015|
|        5406|   -6.347762|   -8.678184|    0.824253|    0.012015|
|        5407|   -6.346805|   -8.679758|    0.824254|    0.012015|
|        5408|   -6.345824|   -8.681029|    0.824254|    0.012015|
|        5409|   -6.344819|   -8.682022|    0.824254|    0.012015|
|        5410|   -6.343795|   -8.682768|    0.824254|    0.012015|
|        5411|   -6.342752|   -8.683301|    0.824254|    0.012015|
|        5412|   -6.341694|   -8.683657|    0.824255|    0.012015|
|        5413|   -6.340622|   -8.683874|    0.824255|    0.012015|
|        5414|   -6.339541|   -8.683990|    0.824255|    0.012015|
|        5415|   -6.338453|   -8.684043|    0.824255|    0.012015|
|        5416|   -6.337363|   -8.684066|    0.824256|    0.012015|
|        5417|   -6.336276|   -8.684093|    0.824256|    0.012015|
|        5418|   -6.335198|   -8.684151|    0.824256|    0.012015|
|        5419|   -6.334134|   -8.684266|    0.824256|    0.012014|
|        5420|   -6.333093|   -8.684458|    0.824256|    0.012014|
|        5421|   -6.332080|   -8.684743|    0.824257|    0.012014|
|        5422|   -6.331106|   -8.685135|    0.824257|    0.012014|
|        5423|   -6.330180|   -8.685639|    0.824257|    0.012014|
|        5424|   -6.329310|   -8.686262|    0.824257|    0.012014|
|        5425|   -6.328509|   -8.687005|    0.824257|    0.012014|
|        5426|   -6.327788|   -8.687871|    0.824257|    0.012014|
|        5427|   -6.327158|   -8.688857|    0.824258|    0.012014|
|        5428|   -6.326634|   -8.689956|    0.824258|    0.012014|
|        5429|   -6.326228|   -8.691160|    0.824258|    0.012014|
|        5430|   -6.325955|   -8.692458|    0.824258|    0.012014|
|        5431|   -6.325828|   -8.693838|    0.824258|    0.012014|
|        5432|   -6.325861|   -8.695293|    0.824258|    0.012014|
|        5433|   -6.326069|   -8.696816|    0.824258|    0.012014|
|        5434|   -6.326465|   -8.698403|    0.824259|    0.012014|
|        5435|   -6.327063|   -8.700053|    0.824259|    0.012014|
|        5436|   -6.327876|   -8.701770|    0.824259|    0.012014|
|        5437|   -6.328917|   -8.703556|    0.824259|    0.012014|
|        5438|   -6.330196|   -8.705420|    0.824259|    0.012014|
|        5439|   -6.331725|   -8.707369|    0.824259|    0.012014|
|        5440|   -6.333512|   -8.709411|    0.824259|    0.012015|
|        5441|   -6.335563|   -8.711555|    0.824259|    0.012015|
|        5442|   -6.337884|   -8.713811|    0.824259|    0.012015|
|        5443|   -6.340477|   -8.716189|    0.824259|    0.012015|
|        5444|   -6.343342|   -8.718697|    0.824259|    0.012015|
|        5445|   -6.346477|   -8.721346|    0.824259|    0.012015|
|        5446|   -6.349878|   -8.724143|    0.824259|    0.012015|
|        5447|   -6.353536|   -8.727096|    0.824260|    0.012015|
|        5448|   -6.357439|   -8.730212|    0.824260|    0.012015|
|        5449|   -6.361574|   -8.733497|    0.824260|    0.012015|
|        5450|   -6.365922|   -8.736952|    0.824260|    0.012015|
|        5451|   -6.370462|   -8.740580|    0.824260|    0.012015|
|        5452|   -6.375169|   -8.744379|    0.824260|    0.012015|
|        5453|   -6.380014|   -8.748346|    0.824260|    0.012015|
|        5454|   -6.384965|   -8.752477|    0.824260|    0.012016|
|        5455|   -6.389986|   -8.756764|    0.824260|    0.012016|
|        5456|   -6.395041|   -8.761198|    0.824260|    0.012016|
|        5457|   -6.400087|   -8.765767|    0.824260|    0.012016|
|        5458|   -6.405082|   -8.770460|    0.824260|    0.012016|
|        5459|   -6.409983|   -8.775260|    0.824260|    0.012016|
|        5460|   -6.414744|   -8.780154|    0.824260|    0.012016|
|        5461|   -6.419322|   -8.785124|    0.824259|    0.012016|
|        5462|   -6.423673|   -8.790152|    0.824259|    0.012016|
|        5463|   -6.427756|   -8.795218|    0.824259|    0.012016|
|        5464|   -6.431535|   -8.800304|    0.824259|    0.012016|
|        5465|   -6.434975|   -8.805390|    0.824259|    0.012016|
|        5466|   -6.438051|   -8.810453|    0.824259|    0.012016|
|        5467|   -6.440740|   -8.815473|    0.824259|    0.012017|
|        5468|   -6.443028|   -8.820429|    0.824259|    0.012017|
|        5469|   -6.444908|   -8.825299|    0.824259|    0.012017|
|        5470|   -6.446378|   -8.830060|    0.824259|    0.012017|
|        5471|   -6.447445|   -8.834691|    0.824259|    0.012017|
|        5472|   -6.448125|   -8.839170|    0.824259|    0.012017|
|        5473|   -6.448437|   -8.843476|    0.824259|    0.012017|
|        5474|   -6.448407|   -8.847590|    0.824258|    0.012017|
|        5475|   -6.448066|   -8.851489|    0.824258|    0.012017|
|        5476|   -6.447448|   -8.855158|    0.824258|    0.012017|
|        5477|   -6.446590|   -8.858576|    0.824258|    0.012017|
|        5478|   -6.445530|   -8.861731|    0.824258|    0.012017|
|        5479|   -6.444309|   -8.864607|    0.824258|    0.012017|
|        5480|   -6.442965|   -8.867194|    0.824258|    0.012017|
|        5481|   -6.441538|   -8.869483|    0.824258|    0.012017|
|        5482|   -6.440064|   -8.871469|    0.824258|    0.012017|
|        5483|   -6.438581|   -8.873146|    0.824257|    0.012017|
|        5484|   -6.437121|   -8.874516|    0.824257|    0.012017|
|        5485|   -6.435716|   -8.875579|    0.824257|    0.012017|
|        5486|   -6.434395|   -8.876343|    0.824257|    0.012017|
|        5487|   -6.433182|   -8.876817|    0.824257|    0.012017|
|        5488|   -6.432102|   -8.877013|    0.824257|    0.012017|
|        5489|   -6.431174|   -8.876947|    0.824257|    0.012017|
|        5490|   -6.430416|   -8.876636|    0.824257|    0.012017|
|        5491|   -6.429844|   -8.876103|    0.824257|    0.012017|
|        5492|   -6.429469|   -8.875370|    0.824257|    0.012017|
|        5493|   -6.429303|   -8.874461|    0.824256|    0.012017|
|        5494|   -6.429353|   -8.873403|    0.824256|    0.012017|
|        5495|   -6.429626|   -8.872222|    0.824256|    0.012017|
|        5496|   -6.430126|   -8.870945|    0.824256|    0.012017|
|        5497|   -6.430856|   -8.869600|    0.824256|    0.012017|
|        5498|   -6.431817|   -8.868211|    0.824256|    0.012017|
|        5499|   -6.433010|   -8.866806|    0.824256|    0.012003|
+-----------------------------------------------------------------------+
|Fixed CL Mode (Finite Difference)       |Value                         |
+-----------------------------------------------------------------------+
|Delta CL / Delta AoA                    |0.255666                      |
|Delta CD / Delta CL                     |0.0188177                     |
|Delta CMz / Delta CL                    |0.0170833                     |
+-----------------------------------------------------------------------+
Writing Flow Meta-Data file: flow.meta

----------------------------- Solver Exit -------------------------------

Maximum number of iterations reached (ITER = 5500) before convergence.
+-----------------------------------------------------------------------+
|      Convergence Field     |     Value    |   Criterion  |  Converged |
+-----------------------------------------------------------------------+
|                    rms[Rho]|      -6.43301|         < -12|          No|
+-----------------------------------------------------------------------+
-------------------------------------------------------------------------

--------------------------- Finalizing Solver ---------------------------
Deleted CNumerics container.
Deleted CIntegration container.
Deleted CSolver container.
Deleted CIteration container.
Deleted CInterface container.
Deleted CGeometry container.
Deleted CFreeFormDefBox class.
Deleted CSurfaceMovement class.
Deleted CVolumetricMovement class.
Deleted CConfig container.
Deleted nInst container.
Deleted COutput class.
-------------------------------------------------------------------------

------------------------- Exit Success (SU2_CFD) ------------------------


-------------------------------------------------------------------------
|    ___ _   _ ___                                                      |
|   / __| | | |_  )   Release 8.0.0 "Harrier"                           |
|   \__ \ |_| |/ /                                                      |
|   |___/\___//___|   Suite (Solution Exporting Code)                   |
|                                                                       |
-------------------------------------------------------------------------
| SU2 Project Website: https://su2code.github.io                        |
|                                                                       |
| The SU2 Project is maintained by the SU2 Foundation                   |
| (http://su2foundation.org)                                            |
-------------------------------------------------------------------------
| Copyright 2012-2023, SU2 Contributors                                 |
|                                                                       |
| SU2 is free software; you can redistribute it and/or                  |
| modify it under the terms of the GNU Lesser General Public            |
| License as published by the Free Software Foundation; either          |
| version 2.1 of the License, or (at your option) any later version.    |
|                                                                       |
| SU2 is distributed in the hope that it will be useful,                |
| but WITHOUT ANY WARRANTY; without even the implied warranty of        |
| MERCHANTABILITY or FITNESS FOR A PARTICULAR PURPOSE. See the GNU      |
| Lesser General Public License for more details.                       |
|                                                                       |
| You should have received a copy of the GNU Lesser General Public      |
| License along with SU2. If not, see <http://www.gnu.org/licenses/>.   |
-------------------------------------------------------------------------

----------------- Physical Case Definition ( Zone 0 ) -------------------
Input mesh file name: mesh_RAE2822_turb_deform.su2

-------------------- Output Information ( Zone 0 ) ----------------------
The tabular file format is CSV (.csv).
Flow variables file name: flow.

------------- Config File Boundary Information ( Zone 0 ) ---------------
+-----------------------------------------------------------------------+
|                        Marker Type|                        Marker Name|
+-----------------------------------------------------------------------+
|                          Far-field|                           FARFIELD|
+-----------------------------------------------------------------------+
|                     Heat flux wall|                            AIRFOIL|
+-----------------------------------------------------------------------+
Two dimensional problem.
13937 grid points before partitioning.
22842 volume elements before partitioning.
2 surface markers.
192 boundary elements in index 0 (Marker = AIRFOIL).
40 boundary elements in index 1 (Marker = FARFIELD).
Executing the partitioning functions.
Building the graph adjacency structure.
Calling ParMETIS... graph partitioning complete (831 edge cuts).
Distributing ParMETIS coloring.
Rebalancing vertices.
Rebalancing volume element connectivity.
Rebalancing markers and surface elements.
14875 vertices including ghost points. 
23674 interior elements including halo cells. 
18780 triangles.
4894 quadrilaterals.
Establishing MPI communication patterns.
Identify vertices.
Storing a mapping from global to local point index.

------------------------- Solution Postprocessing -----------------------
Reading and storing the solution from restart_flow.
Volume output fields: COORDINATES, SOLUTION
  Info: Ignoring the following screen output fields:
  RMS_DENSITY, RMS_NU_TILDE, LIFT, DRAG
Screen output fields: INNER_ITER
  Info: Ignoring the following history output groups:
  RMS_RES, AERO_COEFF
History output group(s): ITER
Warning: No (valid) fields chosen for convergence monitoring. Convergence monitoring inactive.
Warning: No (valid) fields chosen for time convergence monitoring. Time convergence monitoring inactive.
|Paraview                           |flow.vtu                           |
|Paraview surface                   |surface_flow.vtu                   |
|CSV file                           |surface_flow.csv                   |

------------------------- Finalize Solver -------------------------
Deleted CGeometry container.
Deleted CSolver class.
Deleted CConfig container.
Deleted COutput class.

Completed in 0.014630 seconds on 6 cores.

------------------------- Exit Success (SU2_SOL) ------------------------

