
-------------------------------------------------------------------------
|    ___ _   _ ___                                                      |
|   / __| | | |_  )   Release 8.0.0 "Harrier"                           |
|   \__ \ |_| |/ /                                                      |
|   |___/\___//___|   Suite (Computational Fluid Dynamics Code)         |
|                                                                       |
-------------------------------------------------------------------------
| SU2 Project Website: https://su2code.github.io                        |
|                                                                       |
| The SU2 Project is maintained by the SU2 Foundation                   |
| (http://su2foundation.org)                                            |
-------------------------------------------------------------------------
| Copyright 2012-2023, SU2 Contributors                                 |
|                                                                       |
| SU2 is free software; you can redistribute it and/or                  |
| modify it under the terms of the GNU Lesser General Public            |
| License as published by the Free Software Foundation; either          |
| version 2.1 of the License, or (at your option) any later version.    |
|                                                                       |
| SU2 is distributed in the hope that it will be useful,                |
| but WITHOUT ANY WARRANTY; without even the implied warranty of        |
| MERCHANTABILITY or FITNESS FOR A PARTICULAR PURPOSE. See the GNU      |
| Lesser General Public License for more details.                       |
|                                                                       |
| You should have received a copy of the GNU Lesser General Public      |
| License along with SU2. If not, see <http://www.gnu.org/licenses/>.   |
-------------------------------------------------------------------------

Parsing config file for zone 0

----------------- Physical Case Definition ( Zone 0 ) -------------------
Compressible RANS equations.
Turbulence model: Spalart-Allmaras-noft2
Hybrid RANS/LES: No Hybrid RANS/LES
Mach number: 0.734.
Angle of attack (AoA): 2.31 deg, and angle of sideslip (AoS): 0 deg.
Reynolds number: 6.5e+06. Reference length 1.
Fixed CL mode, target value: 0.824.
Reading and writing binary SU2 native restart files.
Read flow solution from: solution_flow.dat.
Dimensional simulation.
The reference area is 1 m^2.
The semi-span will be computed using the max y(3D) value.
The reference length is 1 m.
Reference origin for moment evaluation is (0.25, 0, 0).
Surface(s) where the force coefficients are evaluated: AIRFOIL.

Surface(s) plotted in the output file: AIRFOIL.
Surface(s) affected by the design variables: AIRFOIL.
Input mesh file name: mesh_RAE2822_turb_deform.su2

--------------- Space Numerical Integration ( Zone 0 ) ------------------
Jameson-Schmidt-Turkel scheme (2nd order in space) for the flow inviscid terms.
JST viscous coefficients (2nd & 4th): 0.5, 0.02.
The method includes a grid stretching correction (p = 0.3).
Scalar upwind solver for the turbulence model.
First order integration in space.
Average of gradients with correction (viscous flow terms).
Average of gradients with correction (viscous turbulence terms).
Gradient for viscous and source terms: inverse-distance weighted Least-Squares.

--------------- Time Numerical Integration  ( Zone 0 ) ------------------
Local time stepping (steady state simulation).
Euler implicit method for the flow equations.
FGMRES is used for solving the linear system.
Using a ILU(0) preconditioning.
Convergence criteria of the linear solver: 1e-06.
Max number of linear iterations: 10.
No CFL adaptation.
Courant-Friedrichs-Lewy number:       10
Euler implicit time integration for the turbulence model.

------------------ Convergence Criteria  ( Zone 0 ) ---------------------
Maximum number of solver subiterations: 5500.
Begin convergence monitoring at iteration 10.
Residual minimum value: 1e-12.
Cauchy series min. value: 1e-06.
Number of Cauchy elements: 100.
Begin windowed time average at iteration 0.

-------------------- Output Information ( Zone 0 ) ----------------------
File writing frequency: 
+------------------------------------+
|                     File| Frequency|
+------------------------------------+
|                  RESTART|     10000|
|                 PARAVIEW|     10000|
|         SURFACE_PARAVIEW|     10000|
|              SURFACE_CSV|     10000|
+------------------------------------+
Writing the convergence history file every 1 inner iterations.
Writing the screen convergence history every 1 inner iterations.
The tabular file format is CSV (.csv).
Convergence history file name: history_direct.
Forces breakdown file name: forces_breakdown.dat.
Surface file name: surface_flow.
Volume file name: flow.
Restart file name: restart_flow.dat.

------------- Config File Boundary Information ( Zone 0 ) ---------------
+-----------------------------------------------------------------------+
|                        Marker Type|                        Marker Name|
+-----------------------------------------------------------------------+
|                          Far-field|                           FARFIELD|
+-----------------------------------------------------------------------+
|                     Heat flux wall|                            AIRFOIL|
+-----------------------------------------------------------------------+

-------------------- Output Preprocessing ( Zone 0 ) --------------------

WARNING: SURFACE_PRESSURE_DROP can only be computed for at least 2 surfaces (outlet, inlet, ...)

Screen output fields: INNER_ITER, RMS_DENSITY, RMS_NU_TILDE, LIFT, DRAG
History output group(s): ITER, RMS_RES, AERO_COEFF
Convergence field(s): RMS_DENSITY
Warning: No (valid) fields chosen for time convergence monitoring. Time convergence monitoring inactive.
Volume output fields: COORDINATES, SOLUTION, PRIMITIVE

------------------- Geometry Preprocessing ( Zone 0 ) -------------------
Two dimensional problem.
13937 grid points before partitioning.
22842 volume elements before partitioning.
2 surface markers.
192 boundary elements in index 0 (Marker = AIRFOIL).
40 boundary elements in index 1 (Marker = FARFIELD).
Executing the partitioning functions.
Building the graph adjacency structure.
Calling ParMETIS... graph partitioning complete (831 edge cuts).
Distributing ParMETIS coloring.
Rebalancing vertices.
Rebalancing volume element connectivity.
Rebalancing markers and surface elements.
14875 vertices including ghost points. 
23674 interior elements including halo cells. 
18780 triangles.
4894 quadrilaterals.
Establishing MPI communication patterns.
Setting point connectivity.
Renumbering points (Reverse Cuthill McKee Ordering).
Recomputing point connectivity.
Setting element connectivity.
Checking the numerical grid orientation.
All volume elements are correctly orientend.
All surface elements are correctly orientend.
Identifying edges and vertices.
Setting the control volume structure.
Area of the computational grid: 32209.9.
Searching for the closest normal neighbors to the surfaces.
Storing a mapping from global to local point index.
Compute the surface curvature.
Max K: 208.193. Mean K: 8.3793. Standard deviation K: 27.3165.
Checking for periodicity.
Computing mesh quality statistics for the dual control volumes.
+--------------------------------------------------------------+
|           Mesh Quality Metric|        Minimum|        Maximum|
+--------------------------------------------------------------+
|    Orthogonality Angle (deg.)|         74.446|        89.9998|
|     CV Face Area Aspect Ratio|        1.00104|        3359.05|
|           CV Sub-Volume Ratio|        1.00066|        1219.91|
+--------------------------------------------------------------+
Finding max control volume width.
Communicating number of neighbors.
Wetted area = 2.02132 m.
Area projection in the x-plane = 0.128059 m, y-plane = 0.995873 m.
Max. coordinate in the x-direction = 1 m, y-direction = 0.0615154 m.
Min. coordinate in the x-direction = 0 m, y-direction = -0.0626576 m.
Computing wall distances.

-------------------- Solver Preprocessing ( Zone 0 ) --------------------
WARNING: AoA in the solution file (2.76558 deg.) +
         AoA offset in mesh file (0 deg.) = 2.76558 deg.
WARNING: SU2 will use the dCD/dCL provided in the direct solution file: 0.0205988.
WARNING: SU2 will use the dCMz/dCL provided in the direct solution file: 0.0157598.
Viscous flow: Computing pressure using the ideal gas law
based on the free-stream temperature and a density computed
from the Reynolds number.
Force coefficients computed using free-stream values.

-- Models:
+------------------------------------------------------------------------------+
|          Viscosity Model|        Conductivity Model|              Fluid Model|
+------------------------------------------------------------------------------+
|               SUTHERLAND|          CONSTANT_PRANDTL|             STANDARD_AIR|
+------------------------------------------------------------------------------+
-- Fluid properties:
+------------------------------------------------------------------------------+
|                  Name|    Dim. value|    Ref. value|      Unit|Non-dim. value|
+------------------------------------------------------------------------------+
|        Ref. Viscosity|     1.716e-05|             1|   N.s/m^2|     1.716e-05|
|      Sutherland Temp.|        273.15|             1|         K|        273.15|
|     Sutherland Const.|         110.4|             1|         K|         110.4|
+------------------------------------------------------------------------------+
|        Prandtl (Lam.)|             -|             -|         -|          0.71|
|       Prandtl (Turb.)|             -|             -|         -|           0.9|
+------------------------------------------------------------------------------+
|          Gas Constant|       287.058|             1|  N.m/kg.K|       287.058|
|      Spec. Heat Ratio|             -|             -|         -|           1.4|
+------------------------------------------------------------------------------+
-- Initial and free-stream conditions:
+------------------------------------------------------------------------------+
|                  Name|    Dim. value|    Ref. value|      Unit|Non-dim. value|
+------------------------------------------------------------------------------+
|       Static Pressure|         38515|             1|        Pa|         38515|
|               Density|      0.465631|             1|    kg/m^3|      0.465631|
|           Temperature|        288.15|             1|         K|        288.15|
|          Total Energy|        237984|             1|   m^2/s^2|        237984|
|            Velocity-X|       249.487|             1|       m/s|       249.487|
|            Velocity-Y|       12.0517|             1|       m/s|       12.0517|
|    Velocity Magnitude|       249.778|             1|       m/s|       249.778|
+------------------------------------------------------------------------------+
|             Viscosity|    1.7893e-05|             1|   N.s/m^2|    1.7893e-05|
|          Conductivity|             -|             1|   W/m^2.K|             -|
|     Turb. Kin. Energy|       233.959|             1|   m^2/s^2|       233.959|
|     Spec. Dissipation|        608834|             1|       1/s|        608834|
+------------------------------------------------------------------------------+
|           Mach Number|             -|             -|         -|         0.734|
|       Reynolds Number|             -|             -|         -|       6.5e+06|
+------------------------------------------------------------------------------+
Initialize Jacobian structure (Navier-Stokes). MG level: 0.
Initialize Jacobian structure (SA model).

------------------- Numerics Preprocessing ( Zone 0 ) -------------------

----------------- Integration Preprocessing ( Zone 0 ) ------------------

------------------- Iteration Preprocessing ( Zone 0 ) ------------------
Euler/Navier-Stokes/RANS fluid iteration.

------------------------------ Begin Solver -----------------------------

Simulation Run using the Single-zone Driver
WARNING: SU2 was not compiled for an AVX-capable architecture. Performance could be better,
         see https://su2code.github.io/docs_v7/Build-SU2-Linux-MacOS/#compiler-optimizations
+----------------------------------------------------------------+
|  Inner_Iter|    rms[Rho]|     rms[nu]|          CL|          CD|
+----------------------------------------------------------------+
|           0|   -7.584203|   -8.995024|    0.824000|    0.011994|
|           1|   -7.639988|   -9.093306|    0.824000|    0.011994|
|           2|   -7.698611|   -9.219939|    0.824000|    0.011994|
|           3|   -7.742993|   -9.373504|    0.824000|    0.011994|
|           4|   -7.773568|   -9.536202|    0.824000|    0.011994|
|           5|   -7.792063|   -9.651222|    0.824000|    0.011994|
|           6|   -7.800420|   -9.672626|    0.824000|    0.011994|
|           7|   -7.801496|   -9.645463|    0.824000|    0.011994|
|           8|   -7.798030|   -9.612492|    0.824000|    0.011994|
|           9|   -7.791789|   -9.579585|    0.824000|    0.011994|
|          10|   -7.783650|   -9.544242|    0.824000|    0.011994|
|          11|   -7.774133|   -9.509003|    0.824000|    0.011994|
|          12|   -7.763758|   -9.480190|    0.824000|    0.011994|
|          13|   -7.753085|   -9.463343|    0.824000|    0.011994|
|          14|   -7.742608|   -9.461380|    0.824000|    0.011995|
|          15|   -7.732680|   -9.474704|    0.824000|    0.011995|
|          16|   -7.723547|   -9.501288|    0.824000|    0.011995|
|          17|   -7.715419|   -9.535877|    0.824000|    0.011995|
|          18|   -7.708515|   -9.568853|    0.824000|    0.011995|
|          19|   -7.703051|   -9.587732|    0.824000|    0.011995|
|          20|   -7.699186|   -9.584698|    0.824000|    0.011995|
|          21|   -7.696955|   -9.563555|    0.824000|    0.011995|
|          22|   -7.696242|   -9.535394|    0.824000|    0.011995|
|          23|   -7.696794|   -9.509895|    0.824000|    0.011995|
|          24|   -7.698272|   -9.492252|    0.824000|    0.011995|
|          25|   -7.700319|   -9.484136|    0.824000|    0.011995|
|          26|   -7.702626|   -9.485101|    0.824000|    0.011995|
|          27|   -7.704961|   -9.493380|    0.824000|    0.011995|
|          28|   -7.707166|   -9.506278|    0.824000|    0.011995|
|          29|   -7.709130|   -9.520497|    0.824000|    0.011995|
|          30|   -7.710746|   -9.532737|    0.824000|    0.011995|
|          31|   -7.711879|   -9.540580|    0.824000|    0.011995|
|          32|   -7.712368|   -9.543271|    0.824000|    0.011995|
|          33|   -7.712047|   -9.541814|    0.824000|    0.011995|
|          34|   -7.710785|   -9.538307|    0.824000|    0.011995|
|          35|   -7.708530|   -9.535044|    0.824000|    0.011995|
|          36|   -7.705327|   -9.533904|    0.823999|    0.011995|
|          37|   -7.701312|   -9.536137|    0.823999|    0.011995|
|          38|   -7.696680|   -9.542394|    0.823999|    0.011995|
|          39|   -7.691653|   -9.552834|    0.823999|    0.011995|
|          40|   -7.686434|   -9.567210|    0.823999|    0.011995|
|          41|   -7.681192|   -9.584905|    0.823999|    0.011995|
|          42|   -7.676044|   -9.604925|    0.823999|    0.011995|
|          43|   -7.671057|   -9.625865|    0.823999|    0.011995|
|          44|   -7.666255|   -9.645934|    0.823999|    0.011995|
|          45|   -7.661621|   -9.663096|    0.823999|    0.011995|
|          46|   -7.657107|   -9.675427|    0.823999|    0.011995|
|          47|   -7.652639|   -9.681622|    0.823999|    0.011995|
|          48|   -7.648129|   -9.681430|    0.823999|    0.011994|
|          49|   -7.643480|   -9.675734|    0.823999|    0.011994|
|          50|   -7.638602|   -9.666211|    0.823999|    0.011994|
|          51|   -7.633427|   -9.654801|    0.823999|    0.011994|
|          52|   -7.627912|   -9.643271|    0.823999|    0.011994|
|          53|   -7.622054|   -9.632985|    0.823999|    0.011994|
|          54|   -7.615882|   -9.624864|    0.823999|    0.011994|
|          55|   -7.609460|   -9.619431|    0.823999|    0.011994|
|          56|   -7.602870|   -9.616894|    0.823999|    0.011994|
|          57|   -7.596208|   -9.617222|    0.823999|    0.011994|
|          58|   -7.589565|   -9.620211|    0.823999|    0.011994|
|          59|   -7.583022|   -9.625533|    0.823999|    0.011994|
|          60|   -7.576642|   -9.632779|    0.823999|    0.011994|
|          61|   -7.570465|   -9.641497|    0.823999|    0.011994|
|          62|   -7.564514|   -9.651218|    0.823999|    0.011994|
|          63|   -7.558792|   -9.661485|    0.823999|    0.011994|
|          64|   -7.553292|   -9.671873|    0.823999|    0.011994|
|          65|   -7.548002|   -9.681998|    0.823999|    0.011994|
|          66|   -7.542908|   -9.691534|    0.823999|    0.011994|
|          67|   -7.538003|   -9.700216|    0.823999|    0.011994|
|          68|   -7.533285|   -9.707851|    0.823999|    0.011994|
|          69|   -7.528761|   -9.714323|    0.823999|    0.011994|
|          70|   -7.524444|   -9.719600|    0.823999|    0.011994|
|          71|   -7.520351|   -9.723730|    0.823999|    0.011994|
|          72|   -7.516502|   -9.726828|    0.823999|    0.011994|
|          73|   -7.512913|   -9.729048|    0.823999|    0.011994|
|          74|   -7.509595|   -9.730557|    0.823999|    0.011994|
|          75|   -7.506553|   -9.731499|    0.824000|    0.011994|
|          76|   -7.503782|   -9.731975|    0.824000|    0.011994|
|          77|   -7.501270|   -9.732034|    0.824000|    0.011994|
|          78|   -7.498995|   -9.731668|    0.824000|    0.011994|
|          79|   -7.496930|   -9.730841|    0.824000|    0.011994|
|          80|   -7.495047|   -9.729506|    0.824000|    0.011994|
|          81|   -7.493315|   -9.727637|    0.824000|    0.011994|
|          82|   -7.491705|   -9.725258|    0.824000|    0.011994|
|          83|   -7.490193|   -9.722447|    0.824000|    0.011994|
|          84|   -7.488763|   -9.719346|    0.824000|    0.011994|
|          85|   -7.487407|   -9.716141|    0.824000|    0.011994|
|          86|   -7.486123|   -9.713043|    0.824000|    0.011994|
|          87|   -7.484923|   -9.710266|    0.824000|    0.011994|
|          88|   -7.483824|   -9.708003|    0.824000|    0.011994|
|          89|   -7.482851|   -9.706410|    0.824000|    0.011994|
|          90|   -7.482037|   -9.705598|    0.824000|    0.011994|
|          91|   -7.481418|   -9.705629|    0.824000|    0.011994|
|          92|   -7.481031|   -9.706521|    0.824000|    0.011994|
|          93|   -7.480914|   -9.708248|    0.824000|    0.011994|
|          94|   -7.481106|   -9.710758|    0.824000|    0.011994|
|          95|   -7.481637|   -9.713972|    0.824000|    0.011994|
|          96|   -7.482536|   -9.717800|    0.824000|    0.011994|
|          97|   -7.483822|   -9.722147|    0.824000|    0.011994|
|          98|   -7.485506|   -9.726919|    0.824000|    0.011994|
|          99|   -7.487590|   -9.732028|    0.824000|    0.011994|
|         100|   -7.490062|   -9.737396|    0.824000|    0.011994|
|         101|   -7.492898|   -9.742956|    0.824000|    0.011994|
|         102|   -7.496062|   -9.748654|    0.824000|    0.011994|
|         103|   -7.499501|   -9.754447|    0.824000|    0.011994|
|         104|   -7.503149|   -9.760302|    0.824000|    0.011994|
|         105|   -7.506928|   -9.766199|    0.824000|    0.011994|
|         106|   -7.510745|   -9.772125|    0.824000|    0.011994|
|         107|   -7.514499|   -9.778073|    0.824000|    0.011994|
|         108|   -7.518081|   -9.784043|    0.824000|    0.011994|
|         109|   -7.521383|   -9.790036|    0.824000|    0.011994|
|         110|   -7.524297|   -9.796056|    0.824000|    0.011994|
|         111|   -7.526724|   -9.802102|    0.824000|    0.011994|
|         112|   -7.528584|   -9.808172|    0.824000|    0.011994|
|         113|   -7.529812|   -9.814256|    0.824000|    0.011994|
|         114|   -7.530373|   -9.820340|    0.824000|    0.011994|
|         115|   -7.530257|   -9.826403|    0.824000|    0.011994|
|         116|   -7.529484|   -9.832417|    0.824000|    0.011994|
|         117|   -7.528100|   -9.838353|    0.824000|    0.011994|
|         118|   -7.526176|   -9.844179|    0.824000|    0.011994|
|         119|   -7.523800|   -9.849867|    0.824000|    0.011994|
|         120|   -7.521073|   -9.855396|    0.824000|    0.011994|
|         121|   -7.518102|   -9.860751|    0.824000|    0.011994|
|         122|   -7.514994|   -9.865933|    0.824000|    0.011994|
|         123|   -7.511848|   -9.870954|    0.824000|    0.011994|
|         124|   -7.508756|   -9.875839|    0.824000|    0.011994|
|         125|   -7.505790|   -9.880627|    0.824000|    0.011994|
|         126|   -7.503011|   -9.885367|    0.824000|    0.011994|
|         127|   -7.500458|   -9.890113|    0.824000|    0.011994|
|         128|   -7.498152|   -9.894922|    0.824000|    0.011994|
|         129|   -7.496098|   -9.899848|    0.824000|    0.011994|
|         130|   -7.494283|   -9.904936|    0.824000|    0.011994|
|         131|   -7.492679|   -9.910223|    0.824000|    0.011994|
|         132|   -7.491247|   -9.915730|    0.824000|    0.011994|
|         133|   -7.489940|   -9.921459|    0.824000|    0.011994|
|         134|   -7.488703|   -9.927395|    0.824000|    0.011994|
|         135|   -7.487483|   -9.933504|    0.824000|    0.011994|
|         136|   -7.486224|   -9.939733|    0.824000|    0.011994|
|         137|   -7.484880|   -9.946014|    0.824000|    0.011994|
|         138|   -7.483407|   -9.952264|    0.824000|    0.011994|
|         139|   -7.481775|   -9.958394|    0.824000|    0.011994|
|         140|   -7.479961|   -9.964309|    0.824000|    0.011994|
|         141|   -7.477956|   -9.969920|    0.824000|    0.011994|
|         142|   -7.475758|   -9.975145|    0.824000|    0.011994|
|         143|   -7.473376|   -9.979918|    0.824000|    0.011994|
|         144|   -7.470826|   -9.984193|    0.824000|    0.011994|
|         145|   -7.468130|   -9.987949|    0.824000|    0.011994|
|         146|   -7.465312|   -9.991189|    0.824000|    0.011994|
|         147|   -7.462399|   -9.993944|    0.824000|    0.011994|
|         148|   -7.459417|   -9.996262|    0.824000|    0.011994|
|         149|   -7.456392|   -9.998215|    0.824000|    0.011994|
|         150|   -7.453346|   -9.999881|    0.824000|    0.011994|
|         151|   -7.450301|  -10.001347|    0.824000|    0.011994|
|         152|   -7.447275|  -10.002697|    0.824000|    0.011994|
|         153|   -7.444286|  -10.004011|    0.824000|    0.011994|
|         154|   -7.441349|  -10.005352|    0.824000|    0.011994|
|         155|   -7.438476|  -10.006772|    0.824000|    0.011994|
|         156|   -7.435682|  -10.008302|    0.824000|    0.011994|
|         157|   -7.432979|  -10.009952|    0.824000|    0.011994|
|         158|   -7.430380|  -10.011716|    0.824000|    0.011994|
|         159|   -7.427896|  -10.013566|    0.824000|    0.011994|
|         160|   -7.425540|  -10.015460|    0.824000|    0.011994|
|         161|   -7.423325|  -10.017346|    0.824000|    0.011994|
|         162|   -7.421262|  -10.019161|    0.824000|    0.011994|
|         163|   -7.419361|  -10.020845|    0.824000|    0.011994|
|         164|   -7.417631|  -10.022339|    0.824000|    0.011994|
|         165|   -7.416079|  -10.023594|    0.824000|    0.011994|
|         166|   -7.414709|  -10.024577|    0.824000|    0.011994|
|         167|   -7.413524|  -10.025274|    0.824000|    0.011994|
|         168|   -7.412523|  -10.025689|    0.824000|    0.011994|
|         169|   -7.411701|  -10.025850|    0.824000|    0.011994|
|         170|   -7.411051|  -10.025801|    0.824000|    0.011994|
|         171|   -7.410563|  -10.025604|    0.824000|    0.011994|
|         172|   -7.410225|  -10.025333|    0.824000|    0.011994|
|         173|   -7.410022|  -10.025068|    0.824000|    0.011994|
|         174|   -7.409939|  -10.024890|    0.824000|    0.011994|
|         175|   -7.409962|  -10.024879|    0.824000|    0.011994|
|         176|   -7.410076|  -10.025105|    0.824000|    0.011994|
|         177|   -7.410269|  -10.025631|    0.824000|    0.011994|
|         178|   -7.410531|  -10.026504|    0.824000|    0.011994|
|         179|   -7.410858|  -10.027757|    0.824000|    0.011994|
|         180|   -7.411249|  -10.029408|    0.824000|    0.011994|
|         181|   -7.411707|  -10.031460|    0.824000|    0.011994|
|         182|   -7.412244|  -10.033899|    0.824000|    0.011994|
|         183|   -7.412873|  -10.036700|    0.824000|    0.011994|
|         184|   -7.413615|  -10.039824|    0.824000|    0.011994|
|         185|   -7.414495|  -10.043221|    0.824000|    0.011994|
|         186|   -7.415537|  -10.046836|    0.824000|    0.011994|
|         187|   -7.416773|  -10.050608|    0.824000|    0.011994|
|         188|   -7.418230|  -10.054473|    0.824000|    0.011994|
|         189|   -7.419936|  -10.058370|    0.824000|    0.011994|
|         190|   -7.421917|  -10.062239|    0.824000|    0.011994|
|         191|   -7.424192|  -10.066032|    0.824000|    0.011994|
|         192|   -7.426775|  -10.069706|    0.824000|    0.011994|
|         193|   -7.429674|  -10.073233|    0.824000|    0.011994|
|         194|   -7.432885|  -10.076596|    0.824000|    0.011994|
|         195|   -7.436398|  -10.079791|    0.824000|    0.011994|
|         196|   -7.440187|  -10.082828|    0.824000|    0.011994|
|         197|   -7.444219|  -10.085729|    0.824000|    0.011994|
|         198|   -7.448448|  -10.088527|    0.824000|    0.011994|
|         199|   -7.452818|  -10.091261|    0.824000|    0.011994|
|         200|   -7.457260|  -10.093979|    0.824000|    0.011994|
|         201|   -7.461701|  -10.096730|    0.824000|    0.011994|
|         202|   -7.466061|  -10.099565|    0.824000|    0.011994|
|         203|   -7.470256|  -10.102532|    0.824000|    0.011994|
|         204|   -7.474206|  -10.105675|    0.824000|    0.011994|
|         205|   -7.477835|  -10.109035|    0.824000|    0.011994|
|         206|   -7.481078|  -10.112642|    0.824000|    0.011994|
|         207|   -7.483886|  -10.116518|    0.824000|    0.011994|
|         208|   -7.486229|  -10.120676|    0.824000|    0.011994|
|         209|   -7.488095|  -10.125117|    0.824000|    0.011994|
|         210|   -7.489499|  -10.129831|    0.824000|    0.011994|
|         211|   -7.490478|  -10.134796|    0.824000|    0.011994|
|         212|   -7.491089|  -10.139977|    0.824000|    0.011994|
|         213|   -7.491410|  -10.145330|    0.824000|    0.011994|
|         214|   -7.491532|  -10.150800|    0.824000|    0.011994|
|         215|   -7.491560|  -10.156320|    0.824000|    0.011994|
|         216|   -7.491604|  -10.161820|    0.824000|    0.011994|
|         217|   -7.491775|  -10.167224|    0.824000|    0.011994|
|         218|   -7.492185|  -10.172454|    0.824000|    0.011994|
|         219|   -7.492942|  -10.177434|    0.824000|    0.011994|
|         220|   -7.494146|  -10.182094|    0.824000|    0.011994|
|         221|   -7.495889|  -10.186376|    0.824000|    0.011994|
|         222|   -7.498254|  -10.190233|    0.824000|    0.011994|
|         223|   -7.501313|  -10.193636|    0.824000|    0.011994|
|         224|   -7.505129|  -10.196574|    0.824000|    0.011994|
|         225|   -7.509753|  -10.199056|    0.824000|    0.011994|
|         226|   -7.515224|  -10.201110|    0.824000|    0.011994|
|         227|   -7.521573|  -10.202781|    0.824000|    0.011994|
|         228|   -7.528819|  -10.204131|    0.824000|    0.011994|
|         229|   -7.536970|  -10.205231|    0.824000|    0.011994|
|         230|   -7.546021|  -10.206163|    0.824000|    0.011994|
|         231|   -7.555960|  -10.207010|    0.824000|    0.011994|
|         232|   -7.566758|  -10.207858|    0.824000|    0.011994|
|         233|   -7.578376|  -10.208788|    0.824000|    0.011994|
|         234|   -7.590759|  -10.209875|    0.824000|    0.011994|
|         235|   -7.603839|  -10.211186|    0.824000|    0.011994|
|         236|   -7.617529|  -10.212778|    0.824000|    0.011994|
|         237|   -7.631726|  -10.214695|    0.824000|    0.011994|
|         238|   -7.646310|  -10.216971|    0.824000|    0.011994|
|         239|   -7.661142|  -10.219625|    0.824000|    0.011994|
|         240|   -7.676064|  -10.222663|    0.824000|    0.011994|
|         241|   -7.690903|  -10.226079|    0.824000|    0.011994|
|         242|   -7.705475|  -10.229852|    0.824000|    0.011994|
|         243|   -7.719584|  -10.233950|    0.824000|    0.011994|
|         244|   -7.733039|  -10.238330|    0.824000|    0.011994|
|         245|   -7.745650|  -10.242938|    0.824000|    0.011994|
|         246|   -7.757250|  -10.247710|    0.824000|    0.011994|
|         247|   -7.767696|  -10.252577|    0.824000|    0.011994|
|         248|   -7.776881|  -10.257466|    0.824000|    0.011994|
|         249|   -7.784739|  -10.262300|    0.824000|    0.011994|
|         250|   -7.791253|  -10.267006|    0.824000|    0.011994|
|         251|   -7.796449|  -10.271514|    0.824000|    0.011994|
|         252|   -7.800394|  -10.275763|    0.824000|    0.011994|
|         253|   -7.803191|  -10.279705|    0.824000|    0.011994|
|         254|   -7.804967|  -10.283303|    0.824000|    0.011994|
|         255|   -7.805868|  -10.286538|    0.824000|    0.011994|
|         256|   -7.806043|  -10.289406|    0.824000|    0.011994|
|         257|   -7.805644|  -10.291919|    0.824000|    0.011994|
|         258|   -7.804816|  -10.294103|    0.824000|    0.011994|
|         259|   -7.803692|  -10.295998|    0.824000|    0.011994|
|         260|   -7.802394|  -10.297650|    0.824000|    0.011994|
|         261|   -7.801027|  -10.299111|    0.824000|    0.011994|
|         262|   -7.799683|  -10.300434|    0.824000|    0.011994|
|         263|   -7.798442|  -10.301671|    0.824000|    0.011994|
|         264|   -7.797368|  -10.302866|    0.824000|    0.011994|
|         265|   -7.796516|  -10.304054|    0.824000|    0.011994|
|         266|   -7.795929|  -10.305261|    0.824000|    0.011994|
|         267|   -7.795643|  -10.306497|    0.824000|    0.011994|
|         268|   -7.795687|  -10.307761|    0.824000|    0.011994|
|         269|   -7.796081|  -10.309036|    0.824000|    0.011994|
|         270|   -7.796842|  -10.310294|    0.824000|    0.011994|
|         271|   -7.797982|  -10.311494|    0.824000|    0.011994|
|         272|   -7.799508|  -10.312587|    0.824000|    0.011994|
|         273|   -7.801425|  -10.313517|    0.824000|    0.011994|
|         274|   -7.803736|  -10.314225|    0.824000|    0.011994|
|         275|   -7.806437|  -10.314655|    0.824000|    0.011994|
|         276|   -7.809527|  -10.314756|    0.824000|    0.011994|
|         277|   -7.812999|  -10.314488|    0.824000|    0.011994|
|         278|   -7.816844|  -10.313822|    0.824000|    0.011994|
|         279|   -7.821053|  -10.312749|    0.824000|    0.011994|
|         280|   -7.825611|  -10.311274|    0.824000|    0.011994|
|         281|   -7.830504|  -10.309424|    0.824000|    0.011994|
|         282|   -7.835713|  -10.307241|    0.824000|    0.011994|
|         283|   -7.841217|  -10.304783|    0.824000|    0.011994|
|         284|   -7.846994|  -10.302121|    0.824000|    0.011994|
|         285|   -7.853016|  -10.299333|    0.824000|    0.011994|
|         286|   -7.859256|  -10.296505|    0.824000|    0.011994|
|         287|   -7.865682|  -10.293722|    0.824000|    0.011994|
|         288|   -7.872261|  -10.291070|    0.824000|    0.011994|
|         289|   -7.878959|  -10.288628|    0.824000|    0.011994|
|         290|   -7.885739|  -10.286470|    0.824000|    0.011994|
|         291|   -7.892565|  -10.284661|    0.824000|    0.011994|
|         292|   -7.899400|  -10.283256|    0.824000|    0.011994|
|         293|   -7.906207|  -10.282302|    0.824000|    0.011994|
|         294|   -7.912953|  -10.281834|    0.824000|    0.011994|
|         295|   -7.919603|  -10.281877|    0.824000|    0.011994|
|         296|   -7.926129|  -10.282447|    0.824000|    0.011994|
|         297|   -7.932502|  -10.283550|    0.824000|    0.011994|
|         298|   -7.938700|  -10.285184|    0.824000|    0.011994|
|         299|   -7.944703|  -10.287337|    0.824000|    0.011994|
|         300|   -7.950495|  -10.289993|    0.824000|    0.011994|
|         301|   -7.956064|  -10.293128|    0.824000|    0.011994|
|         302|   -7.961400|  -10.296712|    0.824000|    0.011994|
|         303|   -7.966498|  -10.300711|    0.824000|    0.011994|
|         304|   -7.971353|  -10.305088|    0.824000|    0.011994|
|         305|   -7.975963|  -10.309804|    0.824000|    0.011994|
|         306|   -7.980325|  -10.314817|    0.824000|    0.011994|
|         307|   -7.984437|  -10.320087|    0.824000|    0.011994|
|         308|   -7.988298|  -10.325572|    0.824000|    0.011994|
|         309|   -7.991904|  -10.331234|    0.824000|    0.011994|
|         310|   -7.995250|  -10.337039|    0.824000|    0.011994|
|         311|   -7.998330|  -10.342952|    0.824000|    0.011994|
|         312|   -8.001136|  -10.348947|    0.824000|    0.011994|
|         313|   -8.003662|  -10.355002|    0.824000|    0.011994|
|         314|   -8.005897|  -10.361099|    0.824000|    0.011994|
|         315|   -8.007833|  -10.367227|    0.824000|    0.011994|
|         316|   -8.009460|  -10.373379|    0.824000|    0.011994|
|         317|   -8.010773|  -10.379556|    0.824000|    0.011994|
|         318|   -8.011764|  -10.385763|    0.824000|    0.011994|
|         319|   -8.012432|  -10.392008|    0.824000|    0.011994|
|         320|   -8.012777|  -10.398305|    0.824000|    0.011994|
|         321|   -8.012802|  -10.404671|    0.824000|    0.011994|
|         322|   -8.012516|  -10.411123|    0.824000|    0.011994|
|         323|   -8.011930|  -10.417683|    0.824000|    0.011994|
|         324|   -8.011060|  -10.424371|    0.824000|    0.011994|
|         325|   -8.009927|  -10.431208|    0.824000|    0.011994|
|         326|   -8.008554|  -10.438214|    0.824000|    0.011994|
|         327|   -8.006967|  -10.445407|    0.824000|    0.011994|
|         328|   -8.005196|  -10.452801|    0.824000|    0.011994|
|         329|   -8.003272|  -10.460410|    0.824000|    0.011994|
|         330|   -8.001228|  -10.468240|    0.824000|    0.011994|
|         331|   -7.999097|  -10.476295|    0.824000|    0.011994|
|         332|   -7.996915|  -10.484570|    0.824000|    0.011994|
|         333|   -7.994714|  -10.493058|    0.824000|    0.011994|
|         334|   -7.992528|  -10.501743|    0.824000|    0.011994|
|         335|   -7.990390|  -10.510599|    0.824000|    0.011994|
|         336|   -7.988329|  -10.519596|    0.824000|    0.011994|
|         337|   -7.986376|  -10.528694|    0.824000|    0.011994|
|         338|   -7.984558|  -10.537845|    0.824000|    0.011994|
|         339|   -7.982902|  -10.546992|    0.824000|    0.011994|
|         340|   -7.981431|  -10.556072|    0.824000|    0.011994|
|         341|   -7.980169|  -10.565015|    0.824000|    0.011994|
|         342|   -7.979135|  -10.573745|    0.824000|    0.011994|
|         343|   -7.978349|  -10.582186|    0.824000|    0.011994|
|         344|   -7.977829|  -10.590258|    0.824000|    0.011994|
|         345|   -7.977589|  -10.597888|    0.824000|    0.011994|
|         346|   -7.977645|  -10.605005|    0.824000|    0.011994|
|         347|   -7.978009|  -10.611550|    0.824000|    0.011994|
|         348|   -7.978692|  -10.617476|    0.824000|    0.011994|
|         349|   -7.979705|  -10.622751|    0.824000|    0.011994|
|         350|   -7.981056|  -10.627359|    0.824000|    0.011994|
|         351|   -7.982752|  -10.631304|    0.824000|    0.011994|
|         352|   -7.984800|  -10.634605|    0.824000|    0.011994|
|         353|   -7.987203|  -10.637301|    0.824000|    0.011994|
|         354|   -7.989964|  -10.639442|    0.824000|    0.011994|
|         355|   -7.993084|  -10.641091|    0.824000|    0.011994|
|         356|   -7.996562|  -10.642320|    0.824000|    0.011994|
|         357|   -8.000395|  -10.643204|    0.824000|    0.011994|
|         358|   -8.004577|  -10.643822|    0.824000|    0.011994|
|         359|   -8.009102|  -10.644248|    0.824000|    0.011994|
|         360|   -8.013958|  -10.644555|    0.824000|    0.011994|
|         361|   -8.019131|  -10.644809|    0.824000|    0.011994|
|         362|   -8.024605|  -10.645069|    0.824000|    0.011994|
|         363|   -8.030360|  -10.645385|    0.824000|    0.011994|
|         364|   -8.036370|  -10.645797|    0.824000|    0.011994|
|         365|   -8.042606|  -10.646336|    0.824000|    0.011994|
|         366|   -8.049038|  -10.647024|    0.824000|    0.011994|
|         367|   -8.055626|  -10.647875|    0.824000|    0.011994|
|         368|   -8.062330|  -10.648891|    0.824000|    0.011994|
|         369|   -8.069104|  -10.650069|    0.824000|    0.011994|
|         370|   -8.075897|  -10.651397|    0.824000|    0.011994|
|         371|   -8.082656|  -10.652857|    0.824000|    0.011994|
|         372|   -8.089324|  -10.654425|    0.824000|    0.011994|
|         373|   -8.095843|  -10.656070|    0.824000|    0.011994|
|         374|   -8.102154|  -10.657760|    0.824000|    0.011994|
|         375|   -8.108197|  -10.659457|    0.824000|    0.011994|
|         376|   -8.113916|  -10.661125|    0.824000|    0.011994|
|         377|   -8.119257|  -10.662722|    0.824000|    0.011994|
|         378|   -8.124173|  -10.664210|    0.824000|    0.011994|
|         379|   -8.128622|  -10.665552|    0.824000|    0.011994|
|         380|   -8.132573|  -10.666711|    0.824000|    0.011994|
|         381|   -8.136003|  -10.667655|    0.824000|    0.011994|
|         382|   -8.138900|  -10.668359|    0.824000|    0.011994|
|         383|   -8.141264|  -10.668798|    0.824000|    0.011994|
|         384|   -8.143103|  -10.668957|    0.824000|    0.011994|
|         385|   -8.144438|  -10.668825|    0.824000|    0.011994|
|         386|   -8.145298|  -10.668397|    0.824000|    0.011994|
|         387|   -8.145720|  -10.667675|    0.824000|    0.011994|
|         388|   -8.145746|  -10.666666|    0.824000|    0.011994|
|         389|   -8.145424|  -10.665384|    0.824000|    0.011994|
|         390|   -8.144803|  -10.663843|    0.824000|    0.011994|
|         391|   -8.143935|  -10.662065|    0.824000|    0.011994|
|         392|   -8.142870|  -10.660072|    0.824000|    0.011994|
|         393|   -8.141656|  -10.657889|    0.824000|    0.011994|
|         394|   -8.140339|  -10.655540|    0.824000|    0.011994|
|         395|   -8.138962|  -10.653052|    0.824000|    0.011994|
|         396|   -8.137563|  -10.650449|    0.824000|    0.011994|
|         397|   -8.136176|  -10.647752|    0.824000|    0.011994|
|         398|   -8.134830|  -10.644984|    0.824000|    0.011994|
|         399|   -8.133552|  -10.642163|    0.824000|    0.011994|
|         400|   -8.132360|  -10.639305|    0.824000|    0.011994|
|         401|   -8.131274|  -10.636423|    0.824000|    0.011994|
|         402|   -8.130306|  -10.633529|    0.824000|    0.011994|
|         403|   -8.129467|  -10.630630|    0.824000|    0.011994|
|         404|   -8.128766|  -10.627734|    0.824000|    0.011994|
|         405|   -8.128207|  -10.624845|    0.824000|    0.011994|
|         406|   -8.127796|  -10.621967|    0.824000|    0.011994|
|         407|   -8.127535|  -10.619100|    0.824000|    0.011994|
|         408|   -8.127427|  -10.616248|    0.824000|    0.011994|
|         409|   -8.127472|  -10.613412|    0.824000|    0.011994|
|         410|   -8.127672|  -10.610594|    0.824000|    0.011994|
|         411|   -8.128029|  -10.607797|    0.824000|    0.011994|
|         412|   -8.128545|  -10.605026|    0.824000|    0.011994|
|         413|   -8.129221|  -10.602286|    0.824000|    0.011994|
|         414|   -8.130061|  -10.599584|    0.824000|    0.011994|
|         415|   -8.131068|  -10.596930|    0.824000|    0.011994|
|         416|   -8.132245|  -10.594334|    0.824000|    0.011994|
|         417|   -8.133596|  -10.591810|    0.824000|    0.011994|
|         418|   -8.135127|  -10.589373|    0.824000|    0.011994|
|         419|   -8.136842|  -10.587037|    0.824000|    0.011994|
|         420|   -8.138744|  -10.584821|    0.824000|    0.011994|
|         421|   -8.140839|  -10.582742|    0.824000|    0.011994|
|         422|   -8.143128|  -10.580818|    0.824000|    0.011994|
|         423|   -8.145614|  -10.579069|    0.824000|    0.011994|
|         424|   -8.148299|  -10.577513|    0.824000|    0.011994|
|         425|   -8.151180|  -10.576169|    0.824000|    0.011994|
|         426|   -8.154255|  -10.575052|    0.824000|    0.011994|
|         427|   -8.157519|  -10.574180|    0.824000|    0.011994|
|         428|   -8.160964|  -10.573567|    0.824000|    0.011994|
|         429|   -8.164578|  -10.573227|    0.824000|    0.011994|
|         430|   -8.168349|  -10.573169|    0.824000|    0.011994|
|         431|   -8.172257|  -10.573404|    0.824000|    0.011994|
|         432|   -8.176284|  -10.573938|    0.824000|    0.011994|
|         433|   -8.180404|  -10.574777|    0.824000|    0.011994|
|         434|   -8.184589|  -10.575923|    0.824000|    0.011994|
|         435|   -8.188808|  -10.577376|    0.824000|    0.011994|
|         436|   -8.193026|  -10.579133|    0.824000|    0.011994|
|         437|   -8.197206|  -10.581191|    0.824000|    0.011994|
|         438|   -8.201309|  -10.583541|    0.824000|    0.011994|
|         439|   -8.205294|  -10.586175|    0.824000|    0.011994|
|         440|   -8.209118|  -10.589081|    0.824000|    0.011994|
|         441|   -8.212739|  -10.592244|    0.824000|    0.011994|
|         442|   -8.216118|  -10.595648|    0.824000|    0.011994|
|         443|   -8.219217|  -10.599273|    0.824000|    0.011994|
|         444|   -8.222000|  -10.603101|    0.824000|    0.011994|
|         445|   -8.224438|  -10.607106|    0.824000|    0.011994|
|         446|   -8.226506|  -10.611266|    0.824000|    0.011994|
|         447|   -8.228188|  -10.615554|    0.824000|    0.011994|
|         448|   -8.229472|  -10.619943|    0.824000|    0.011994|
|         449|   -8.230357|  -10.624403|    0.824000|    0.011994|
|         450|   -8.230847|  -10.628906|    0.824000|    0.011994|
|         451|   -8.230956|  -10.633421|    0.824000|    0.011994|
|         452|   -8.230703|  -10.637920|    0.824000|    0.011994|
|         453|   -8.230115|  -10.642373|    0.824000|    0.011994|
|         454|   -8.229226|  -10.646751|    0.824000|    0.011994|
|         455|   -8.228072|  -10.651027|    0.824000|    0.011994|
|         456|   -8.226694|  -10.655177|    0.824000|    0.011994|
|         457|   -8.225134|  -10.659176|    0.824000|    0.011994|
|         458|   -8.223438|  -10.663006|    0.824000|    0.011994|
|         459|   -8.221651|  -10.666648|    0.824000|    0.011994|
|         460|   -8.219816|  -10.670088|    0.824000|    0.011994|
|         461|   -8.217979|  -10.673317|    0.824000|    0.011994|
|         462|   -8.216179|  -10.676326|    0.824000|    0.011994|
|         463|   -8.214457|  -10.679115|    0.824000|    0.011994|
|         464|   -8.212849|  -10.681682|    0.824000|    0.011994|
|         465|   -8.211390|  -10.684032|    0.824000|    0.011994|
|         466|   -8.210110|  -10.686174|    0.824000|    0.011994|
|         467|   -8.209037|  -10.688116|    0.824000|    0.011994|
|         468|   -8.208197|  -10.689872|    0.824000|    0.011994|
|         469|   -8.207611|  -10.691457|    0.824000|    0.011994|
|         470|   -8.207298|  -10.692889|    0.824000|    0.011994|
|         471|   -8.207274|  -10.694185|    0.824000|    0.011994|
|         472|   -8.207554|  -10.695365|    0.824000|    0.011994|
|         473|   -8.208148|  -10.696450|    0.824000|    0.011994|
|         474|   -8.209065|  -10.697459|    0.824000|    0.011994|
|         475|   -8.210310|  -10.698412|    0.824000|    0.011994|
|         476|   -8.211886|  -10.699330|    0.824000|    0.011994|
|         477|   -8.213796|  -10.700232|    0.824000|    0.011994|
|         478|   -8.216037|  -10.701135|    0.824000|    0.011994|
|         479|   -8.218606|  -10.702058|    0.824000|    0.011994|
|         480|   -8.221496|  -10.703016|    0.824000|    0.011994|
|         481|   -8.224697|  -10.704025|    0.824000|    0.011994|
|         482|   -8.228199|  -10.705098|    0.824000|    0.011994|
|         483|   -8.231987|  -10.706247|    0.824000|    0.011994|
|         484|   -8.236043|  -10.707484|    0.824000|    0.011994|
|         485|   -8.240346|  -10.708818|    0.824000|    0.011994|
|         486|   -8.244873|  -10.710257|    0.824000|    0.011994|
|         487|   -8.249597|  -10.711807|    0.824000|    0.011994|
|         488|   -8.254488|  -10.713472|    0.824000|    0.011994|
|         489|   -8.259512|  -10.715257|    0.824000|    0.011994|
|         490|   -8.264633|  -10.717162|    0.824000|    0.011994|
|         491|   -8.269811|  -10.719187|    0.824000|    0.011994|
|         492|   -8.275003|  -10.721331|    0.824000|    0.011994|
|         493|   -8.280165|  -10.723590|    0.824000|    0.011994|
|         494|   -8.285250|  -10.725958|    0.824000|    0.011994|
|         495|   -8.290210|  -10.728429|    0.824000|    0.011994|
|         496|   -8.294997|  -10.730995|    0.824000|    0.011994|
|         497|   -8.299564|  -10.733645|    0.824000|    0.011994|
|         498|   -8.303866|  -10.736369|    0.824000|    0.011994|
|         499|   -8.307859|  -10.739152|    0.824000|    0.011994|
|         500|   -8.311504|  -10.741980|    0.824000|    0.011994|
|         501|   -8.314768|  -10.744839|    0.824000|    0.011994|
|         502|   -8.317624|  -10.747712|    0.824000|    0.011994|
|         503|   -8.320051|  -10.750581|    0.824000|    0.011994|
|         504|   -8.322038|  -10.753429|    0.824000|    0.011994|
|         505|   -8.323579|  -10.756237|    0.824000|    0.011994|
|         506|   -8.324679|  -10.758987|    0.824000|    0.011994|
|         507|   -8.325350|  -10.761661|    0.824000|    0.011994|
|         508|   -8.325612|  -10.764242|    0.824000|    0.011994|
|         509|   -8.325492|  -10.766712|    0.824000|    0.011994|
|         510|   -8.325021|  -10.769055|    0.824000|    0.011994|
|         511|   -8.324239|  -10.771257|    0.824000|    0.011994|
|         512|   -8.323185|  -10.773305|    0.824000|    0.011994|
|         513|   -8.321905|  -10.775186|    0.824000|    0.011994|
|         514|   -8.320442|  -10.776892|    0.824000|    0.011994|
|         515|   -8.318842|  -10.778415|    0.824000|    0.011994|
|         516|   -8.317151|  -10.779747|    0.824000|    0.011994|
|         517|   -8.315413|  -10.780887|    0.824000|    0.011994|
|         518|   -8.313670|  -10.781832|    0.824000|    0.011994|
|         519|   -8.311962|  -10.782582|    0.824000|    0.011994|
|         520|   -8.310326|  -10.783139|    0.824000|    0.011994|
|         521|   -8.308796|  -10.783507|    0.824000|    0.011994|
|         522|   -8.307405|  -10.783691|    0.824000|    0.011994|
|         523|   -8.306181|  -10.783698|    0.824000|    0.011994|
|         524|   -8.305149|  -10.783537|    0.824000|    0.011994|
|         525|   -8.304331|  -10.783216|    0.824000|    0.011994|
|         526|   -8.303749|  -10.782746|    0.824000|    0.011994|
|         527|   -8.303419|  -10.782138|    0.824000|    0.011994|
|         528|   -8.303356|  -10.781403|    0.824000|    0.011994|
|         529|   -8.303571|  -10.780556|    0.824000|    0.011994|
|         530|   -8.304075|  -10.779608|    0.824000|    0.011994|
|         531|   -8.304876|  -10.778573|    0.824000|    0.011994|
|         532|   -8.305979|  -10.777465|    0.824000|    0.011994|
|         533|   -8.307386|  -10.776299|    0.824000|    0.011994|
|         534|   -8.309100|  -10.775089|    0.824000|    0.011994|
|         535|   -8.311120|  -10.773848|    0.824000|    0.011994|
|         536|   -8.313443|  -10.772593|    0.824000|    0.011994|
|         537|   -8.316064|  -10.771338|    0.824000|    0.011994|
|         538|   -8.318974|  -10.770097|    0.824000|    0.011994|
|         539|   -8.322165|  -10.768885|    0.824000|    0.011994|
|         540|   -8.325625|  -10.767716|    0.824000|    0.011994|
|         541|   -8.329338|  -10.766603|    0.824000|    0.011994|
|         542|   -8.333288|  -10.765560|    0.824000|    0.011994|
|         543|   -8.337454|  -10.764601|    0.824000|    0.011994|
|         544|   -8.341814|  -10.763736|    0.824000|    0.011994|
|         545|   -8.346341|  -10.762978|    0.824000|    0.011994|
|         546|   -8.351005|  -10.762338|    0.824000|    0.011994|
|         547|   -8.355775|  -10.761824|    0.824000|    0.011994|
|         548|   -8.360616|  -10.761447|    0.824000|    0.011994|
|         549|   -8.365489|  -10.761213|    0.824000|    0.011994|
|         550|   -8.370355|  -10.761130|    0.824000|    0.011994|
|         551|   -8.375169|  -10.761203|    0.824000|    0.011994|
|         552|   -8.379888|  -10.761436|    0.824000|    0.011994|
|         553|   -8.384467|  -10.761832|    0.824000|    0.011994|
|         554|   -8.388861|  -10.762393|    0.824000|    0.011994|
|         555|   -8.393024|  -10.763119|    0.824000|    0.011994|
|         556|   -8.396914|  -10.764010|    0.824000|    0.011994|
|         557|   -8.400491|  -10.765063|    0.824000|    0.011994|
|         558|   -8.403721|  -10.766275|    0.824000|    0.011994|
|         559|   -8.406573|  -10.767641|    0.824000|    0.011994|
|         560|   -8.409023|  -10.769156|    0.824000|    0.011994|
|         561|   -8.411055|  -10.770811|    0.824000|    0.011994|
|         562|   -8.412659|  -10.772600|    0.824000|    0.011994|
|         563|   -8.413836|  -10.774514|    0.824000|    0.011994|
|         564|   -8.414593|  -10.776541|    0.824000|    0.011994|
|         565|   -8.414947|  -10.778671|    0.824000|    0.011994|
|         566|   -8.414920|  -10.780893|    0.824000|    0.011994|
|         567|   -8.414543|  -10.783196|    0.824000|    0.011994|
|         568|   -8.413852|  -10.785565|    0.824000|    0.011994|
|         569|   -8.412887|  -10.787990|    0.824000|    0.011994|
|         570|   -8.411695|  -10.790457|    0.824000|    0.011994|
|         571|   -8.410320|  -10.792955|    0.824000|    0.011994|
|         572|   -8.408813|  -10.795470|    0.824000|    0.011994|
|         573|   -8.407222|  -10.797993|    0.824000|    0.011994|
|         574|   -8.405595|  -10.800511|    0.824000|    0.011994|
|         575|   -8.403979|  -10.803015|    0.824000|    0.011994|
|         576|   -8.402418|  -10.805496|    0.824000|    0.011994|
|         577|   -8.400956|  -10.807947|    0.824000|    0.011994|
|         578|   -8.399632|  -10.810361|    0.824000|    0.011994|
|         579|   -8.398483|  -10.812733|    0.824000|    0.011994|
|         580|   -8.397542|  -10.815061|    0.824000|    0.011994|
|         581|   -8.396839|  -10.817341|    0.824000|    0.011994|
|         582|   -8.396402|  -10.819575|    0.824000|    0.011994|
|         583|   -8.396254|  -10.821762|    0.824000|    0.011994|
|         584|   -8.396416|  -10.823907|    0.824000|    0.011994|
|         585|   -8.396906|  -10.826011|    0.824000|    0.011994|
|         586|   -8.397737|  -10.828082|    0.824000|    0.011994|
|         587|   -8.398923|  -10.830126|    0.824000|    0.011994|
|         588|   -8.400471|  -10.832149|    0.824000|    0.011994|
|         589|   -8.402390|  -10.834160|    0.824000|    0.011994|
|         590|   -8.404681|  -10.836168|    0.824000|    0.011994|
|         591|   -8.407346|  -10.838182|    0.824000|    0.011994|
|         592|   -8.410384|  -10.840211|    0.824000|    0.011994|
|         593|   -8.413790|  -10.842266|    0.824000|    0.011994|
|         594|   -8.417558|  -10.844355|    0.824000|    0.011994|
|         595|   -8.421679|  -10.846488|    0.824000|    0.011994|
|         596|   -8.426139|  -10.848673|    0.824000|    0.011994|
|         597|   -8.430924|  -10.850919|    0.824000|    0.011994|
|         598|   -8.436015|  -10.853234|    0.824000|    0.011994|
|         599|   -8.441390|  -10.855625|    0.824000|    0.011994|
|         600|   -8.447024|  -10.858097|    0.824000|    0.011994|
|         601|   -8.452888|  -10.860657|    0.824000|    0.011994|
|         602|   -8.458952|  -10.863309|    0.824000|    0.011994|
|         603|   -8.465178|  -10.866056|    0.824000|    0.011994|
|         604|   -8.471529|  -10.868902|    0.824000|    0.011994|
|         605|   -8.477960|  -10.871848|    0.824000|    0.011994|
|         606|   -8.484426|  -10.874894|    0.824000|    0.011994|
|         607|   -8.490876|  -10.878043|    0.824000|    0.011994|
|         608|   -8.497261|  -10.881292|    0.824000|    0.011994|
|         609|   -8.503525|  -10.884641|    0.824000|    0.011994|
|         610|   -8.509615|  -10.888087|    0.824000|    0.011994|
|         611|   -8.515476|  -10.891628|    0.824000|    0.011994|
|         612|   -8.521055|  -10.895261|    0.824000|    0.011994|
|         613|   -8.526299|  -10.898983|    0.824000|    0.011994|
|         614|   -8.531162|  -10.902789|    0.824000|    0.011994|
|         615|   -8.535604|  -10.906675|    0.824000|    0.011994|
|         616|   -8.539588|  -10.910636|    0.824000|    0.011994|
|         617|   -8.543087|  -10.914668|    0.824000|    0.011994|
|         618|   -8.546084|  -10.918767|    0.824000|    0.011994|
|         619|   -8.548571|  -10.922926|    0.824000|    0.011994|
|         620|   -8.550548|  -10.927141|    0.824000|    0.011994|
|         621|   -8.552028|  -10.931406|    0.824000|    0.011994|
|         622|   -8.553031|  -10.935718|    0.824000|    0.011994|
|         623|   -8.553588|  -10.940070|    0.824000|    0.011994|
|         624|   -8.553737|  -10.944458|    0.824000|    0.011994|
|         625|   -8.553521|  -10.948876|    0.824000|    0.011994|
|         626|   -8.552991|  -10.953320|    0.824000|    0.011994|
|         627|   -8.552198|  -10.957785|    0.824000|    0.011994|
|         628|   -8.551198|  -10.962265|    0.824000|    0.011994|
|         629|   -8.550048|  -10.966757|    0.824000|    0.011994|
|         630|   -8.548803|  -10.971254|    0.824000|    0.011994|
|         631|   -8.547518|  -10.975751|    0.824000|    0.011994|
|         632|   -8.546246|  -10.980244|    0.824000|    0.011994|
|         633|   -8.545038|  -10.984725|    0.824000|    0.011994|
|         634|   -8.543939|  -10.989191|    0.824000|    0.011994|
|         635|   -8.542995|  -10.993634|    0.824000|    0.011994|
|         636|   -8.542245|  -10.998047|    0.824000|    0.011994|
|         637|   -8.541727|  -11.002425|    0.824000|    0.011994|
|         638|   -8.541473|  -11.006759|    0.824000|    0.011994|
|         639|   -8.541513|  -11.011042|    0.824000|    0.011994|
|         640|   -8.541873|  -11.015266|    0.824000|    0.011994|
|         641|   -8.542577|  -11.019423|    0.824000|    0.011994|
|         642|   -8.543643|  -11.023504|    0.824000|    0.011994|
|         643|   -8.545090|  -11.027500|    0.824000|    0.011994|
|         644|   -8.546931|  -11.031402|    0.824000|    0.011994|
|         645|   -8.549178|  -11.035201|    0.824000|    0.011994|
|         646|   -8.551839|  -11.038887|    0.824000|    0.011994|
|         647|   -8.554920|  -11.042453|    0.824000|    0.011994|
|         648|   -8.558425|  -11.045889|    0.824000|    0.011994|
|         649|   -8.562355|  -11.049188|    0.824000|    0.011994|
|         650|   -8.566708|  -11.052342|    0.824000|    0.011994|
|         651|   -8.571480|  -11.055344|    0.824000|    0.011994|
|         652|   -8.576663|  -11.058191|    0.824000|    0.011994|
|         653|   -8.582248|  -11.060876|    0.824000|    0.011994|
|         654|   -8.588220|  -11.063398|    0.824000|    0.011994|
|         655|   -8.594564|  -11.065754|    0.824000|    0.011994|
|         656|   -8.601260|  -11.067947|    0.824000|    0.011994|
|         657|   -8.608283|  -11.069976|    0.824000|    0.011994|
|         658|   -8.615605|  -11.071847|    0.824000|    0.011994|
|         659|   -8.623194|  -11.073565|    0.824000|    0.011994|
|         660|   -8.631011|  -11.075136|    0.824000|    0.011994|
|         661|   -8.639018|  -11.076570|    0.824000|    0.011994|
|         662|   -8.647165|  -11.077878|    0.824000|    0.011994|
|         663|   -8.655402|  -11.079071|    0.824000|    0.011994|
|         664|   -8.663675|  -11.080163|    0.824000|    0.011994|
|         665|   -8.671921|  -11.081168|    0.824000|    0.011994|
|         666|   -8.680078|  -11.082103|    0.824000|    0.011994|
|         667|   -8.688080|  -11.082982|    0.824000|    0.011994|
|         668|   -8.695859|  -11.083824|    0.824000|    0.011994|
|         669|   -8.703347|  -11.084646|    0.824000|    0.011994|
|         670|   -8.710478|  -11.085465|    0.824000|    0.011994|
|         671|   -8.717191|  -11.086298|    0.824000|    0.011994|
|         672|   -8.723428|  -11.087164|    0.824000|    0.011994|
|         673|   -8.729140|  -11.088078|    0.824000|    0.011994|
|         674|   -8.734289|  -11.089059|    0.824000|    0.011994|
|         675|   -8.738846|  -11.090121|    0.824000|    0.011994|
|         676|   -8.742797|  -11.091281|    0.824000|    0.011994|
|         677|   -8.746138|  -11.092552|    0.824000|    0.011994|
|         678|   -8.748882|  -11.093948|    0.824000|    0.011994|
|         679|   -8.751053|  -11.095482|    0.824000|    0.011994|
|         680|   -8.752686|  -11.097166|    0.824000|    0.011994|
|         681|   -8.753829|  -11.099010|    0.824000|    0.011994|
|         682|   -8.754536|  -11.101024|    0.824000|    0.011994|
|         683|   -8.754870|  -11.103217|    0.824000|    0.011994|
|         684|   -8.754897|  -11.105596|    0.824000|    0.011994|
|         685|   -8.754685|  -11.108167|    0.824000|    0.011994|
|         686|   -8.754303|  -11.110937|    0.824000|    0.011994|
|         687|   -8.753823|  -11.113909|    0.824000|    0.011994|
|         688|   -8.753306|  -11.117087|    0.824000|    0.011994|
|         689|   -8.752818|  -11.120474|    0.824000|    0.011994|
|         690|   -8.752418|  -11.124069|    0.824000|    0.011994|
|         691|   -8.752159|  -11.127875|    0.824000|    0.011994|
|         692|   -8.752092|  -11.131889|    0.824000|    0.011994|
|         693|   -8.752260|  -11.136111|    0.824000|    0.011994|
|         694|   -8.752704|  -11.140537|    0.824000|    0.011994|
|         695|   -8.753458|  -11.145163|    0.824000|    0.011994|
|         696|   -8.754551|  -11.149985|    0.824000|    0.011994|
|         697|   -8.756010|  -11.154995|    0.824000|    0.011994|
|         698|   -8.757854|  -11.160188|    0.824000|    0.011994|
|         699|   -8.760102|  -11.165554|    0.824000|    0.011994|
|         700|   -8.762766|  -11.171083|    0.824000|    0.011994|
|         701|   -8.765855|  -11.176765|    0.824000|    0.011994|
|         702|   -8.769373|  -11.182586|    0.824000|    0.011994|
|         703|   -8.773324|  -11.188534|    0.824000|    0.011994|
|         704|   -8.777703|  -11.194593|    0.824000|    0.011994|
|         705|   -8.782505|  -11.200747|    0.824000|    0.011994|
|         706|   -8.787721|  -11.206976|    0.824000|    0.011994|
|         707|   -8.793337|  -11.213262|    0.824000|    0.011994|
|         708|   -8.799335|  -11.219584|    0.824000|    0.011994|
|         709|   -8.805694|  -11.225918|    0.824000|    0.011994|
|         710|   -8.812386|  -11.232242|    0.824000|    0.011994|
|         711|   -8.819381|  -11.238530|    0.824000|    0.011994|
|         712|   -8.826640|  -11.244756|    0.824000|    0.011994|
|         713|   -8.834123|  -11.250893|    0.824000|    0.011994|
|         714|   -8.841786|  -11.256914|    0.824000|    0.011994|
|         715|   -8.849576|  -11.262793|    0.824000|    0.011994|
|         716|   -8.857435|  -11.268500|    0.824000|    0.011994|
|         717|   -8.865305|  -11.274010|    0.824000|    0.011994|
|         718|   -8.873117|  -11.279298|    0.824000|    0.011994|
|         719|   -8.880804|  -11.284338|    0.824000|    0.011994|
|         720|   -8.888295|  -11.289111|    0.824000|    0.011994|
|         721|   -8.895519|  -11.293596|    0.824000|    0.011994|
|         722|   -8.902407|  -11.297778|    0.824000|    0.011994|
|         723|   -8.908890|  -11.301644|    0.824000|    0.011994|
|         724|   -8.914903|  -11.305187|    0.824000|    0.011994|
|         725|   -8.920397|  -11.308402|    0.824000|    0.011994|
|         726|   -8.925322|  -11.311290|    0.824000|    0.011994|
|         727|   -8.929645|  -11.313855|    0.824000|    0.011994|
|         728|   -8.933345|  -11.316107|    0.824000|    0.011994|
|         729|   -8.936414|  -11.318059|    0.824000|    0.011994|
|         730|   -8.938857|  -11.319730|    0.824000|    0.011994|
|         731|   -8.940696|  -11.321139|    0.824000|    0.011994|
|         732|   -8.941961|  -11.322313|    0.824000|    0.011994|
|         733|   -8.942698|  -11.323276|    0.824000|    0.011994|
|         734|   -8.942959|  -11.324060|    0.824000|    0.011994|
|         735|   -8.942802|  -11.324694|    0.824000|    0.011994|
|         736|   -8.942295|  -11.325211|    0.824000|    0.011994|
|         737|   -8.941505|  -11.325642|    0.824000|    0.011994|
|         738|   -8.940501|  -11.326021|    0.824000|    0.011994|
|         739|   -8.939351|  -11.326379|    0.824000|    0.011994|
|         740|   -8.938121|  -11.326747|    0.824000|    0.011994|
|         741|   -8.936870|  -11.327156|    0.824000|    0.011994|
|         742|   -8.935657|  -11.327634|    0.824000|    0.011994|
|         743|   -8.934535|  -11.328210|    0.824000|    0.011994|
|         744|   -8.933548|  -11.328908|    0.824000|    0.011994|
|         745|   -8.932740|  -11.329752|    0.824000|    0.011994|
|         746|   -8.932143|  -11.330765|    0.824000|    0.011994|
|         747|   -8.931788|  -11.331966|    0.824000|    0.011994|
|         748|   -8.931698|  -11.333372|    0.824000|    0.011994|
|         749|   -8.931893|  -11.335000|    0.824000|    0.011994|
|         750|   -8.932383|  -11.336862|    0.824000|    0.011994|
|         751|   -8.933175|  -11.338971|    0.824000|    0.011994|
|         752|   -8.934274|  -11.341334|    0.824000|    0.011994|
|         753|   -8.935676|  -11.343960|    0.824000|    0.011994|
|         754|   -8.937375|  -11.346851|    0.824000|    0.011994|
|         755|   -8.939358|  -11.350012|    0.824000|    0.011994|
|         756|   -8.941610|  -11.353440|    0.824000|    0.011994|
|         757|   -8.944109|  -11.357134|    0.824000|    0.011994|
|         758|   -8.946830|  -11.361088|    0.824000|    0.011994|
|         759|   -8.949745|  -11.365293|    0.824000|    0.011994|
|         760|   -8.952821|  -11.369740|    0.824000|    0.011994|
|         761|   -8.956019|  -11.374412|    0.824000|    0.011994|
|         762|   -8.959300|  -11.379293|    0.824000|    0.011994|
|         763|   -8.962623|  -11.384362|    0.824000|    0.011994|
|         764|   -8.965941|  -11.389595|    0.824000|    0.011994|
|         765|   -8.969206|  -11.394964|    0.824000|    0.011994|
|         766|   -8.972373|  -11.400437|    0.824000|    0.011994|
|         767|   -8.975392|  -11.405978|    0.824000|    0.011994|
|         768|   -8.978219|  -11.411549|    0.824000|    0.011994|
|         769|   -8.980809|  -11.417108|    0.824000|    0.011994|
|         770|   -8.983122|  -11.422608|    0.824000|    0.011994|
|         771|   -8.985122|  -11.428003|    0.824000|    0.011994|
|         772|   -8.986779|  -11.433242|    0.824000|    0.011994|
|         773|   -8.988069|  -11.438273|    0.824000|    0.011994|
|         774|   -8.988978|  -11.443045|    0.824000|    0.011994|
|         775|   -8.989498|  -11.447509|    0.824000|    0.011994|
|         776|   -8.989628|  -11.451616|    0.824000|    0.011994|
|         777|   -8.989381|  -11.455321|    0.824000|    0.011994|
|         778|   -8.988768|  -11.458586|    0.824000|    0.011994|
|         779|   -8.987816|  -11.461377|    0.824000|    0.011994|
|         780|   -8.986552|  -11.463671|    0.824000|    0.011994|
|         781|   -8.985014|  -11.465450|    0.824000|    0.011994|
|         782|   -8.983239|  -11.466709|    0.824000|    0.011994|
|         783|   -8.981269|  -11.467450|    0.824000|    0.011994|
|         784|   -8.979148|  -11.467686|    0.824000|    0.011994|
|         785|   -8.976922|  -11.467440|    0.824000|    0.011994|
|         786|   -8.974633|  -11.466743|    0.824000|    0.011994|
|         787|   -8.972325|  -11.465633|    0.824000|    0.011994|
|         788|   -8.970040|  -11.464156|    0.824000|    0.011994|
|         789|   -8.967813|  -11.462362|    0.824000|    0.011994|
|         790|   -8.965684|  -11.460304|    0.824000|    0.011994|
|         791|   -8.963682|  -11.458038|    0.824000|    0.011994|
|         792|   -8.961837|  -11.455622|    0.824000|    0.011994|
|         793|   -8.960174|  -11.453112|    0.824000|    0.011994|
|         794|   -8.958715|  -11.450562|    0.824000|    0.011994|
|         795|   -8.957476|  -11.448028|    0.824000|    0.011994|
|         796|   -8.956473|  -11.445558|    0.824000|    0.011994|
|         797|   -8.955714|  -11.443201|    0.824000|    0.011994|
|         798|   -8.955207|  -11.441000|    0.824000|    0.011994|
|         799|   -8.954954|  -11.438997|    0.824000|    0.011994|
|         800|   -8.954953|  -11.437228|    0.824000|    0.011994|
|         801|   -8.955200|  -11.435725|    0.824000|    0.011994|
|         802|   -8.955690|  -11.434519|    0.824000|    0.011994|
|         803|   -8.956409|  -11.433636|    0.824000|    0.011994|
|         804|   -8.957344|  -11.433097|    0.824000|    0.011994|
|         805|   -8.958479|  -11.432923|    0.824000|    0.011994|
|         806|   -8.959790|  -11.433130|    0.824000|    0.011994|
|         807|   -8.961256|  -11.433731|    0.824000|    0.011994|
|         808|   -8.962850|  -11.434737|    0.824000|    0.011994|
|         809|   -8.964544|  -11.436155|    0.824000|    0.011994|
|         810|   -8.966309|  -11.437991|    0.824000|    0.011994|
|         811|   -8.968110|  -11.440247|    0.824000|    0.011994|
|         812|   -8.969915|  -11.442923|    0.824000|    0.011994|
|         813|   -8.971688|  -11.446016|    0.824000|    0.011994|
|         814|   -8.973397|  -11.449520|    0.824000|    0.011994|
|         815|   -8.975007|  -11.453427|    0.824000|    0.011994|
|         816|   -8.976481|  -11.457725|    0.824000|    0.011994|
|         817|   -8.977789|  -11.462400|    0.824000|    0.011994|
|         818|   -8.978905|  -11.467435|    0.824000|    0.011994|
|         819|   -8.979800|  -11.472807|    0.824000|    0.011994|
|         820|   -8.980451|  -11.478491|    0.824000|    0.011994|
|         821|   -8.980842|  -11.484459|    0.824000|    0.011994|
|         822|   -8.980961|  -11.490677|    0.824000|    0.011994|
|         823|   -8.980798|  -11.497108|    0.824000|    0.011994|
|         824|   -8.980354|  -11.503709|    0.824000|    0.011994|
|         825|   -8.979631|  -11.510435|    0.824000|    0.011994|
|         826|   -8.978638|  -11.517235|    0.824000|    0.011994|
|         827|   -8.977391|  -11.524053|    0.824000|    0.011994|
|         828|   -8.975908|  -11.530830|    0.824000|    0.011994|
|         829|   -8.974211|  -11.537506|    0.824000|    0.011994|
|         830|   -8.972331|  -11.544016|    0.824000|    0.011994|
|         831|   -8.970295|  -11.550294|    0.824000|    0.011994|
|         832|   -8.968135|  -11.556276|    0.824000|    0.011994|
|         833|   -8.965886|  -11.561899|    0.824000|    0.011994|
|         834|   -8.963581|  -11.567103|    0.824000|    0.011994|
|         835|   -8.961256|  -11.571833|    0.824000|    0.011994|
|         836|   -8.958944|  -11.576043|    0.824000|    0.011994|
|         837|   -8.956680|  -11.579695|    0.824000|    0.011994|
|         838|   -8.954496|  -11.582762|    0.824000|    0.011994|
|         839|   -8.952421|  -11.585227|    0.824000|    0.011994|
|         840|   -8.950485|  -11.587089|    0.824000|    0.011994|
|         841|   -8.948716|  -11.588355|    0.824000|    0.011994|
|         842|   -8.947137|  -11.589047|    0.824000|    0.011994|
|         843|   -8.945771|  -11.589196|    0.824000|    0.011994|
|         844|   -8.944636|  -11.588844|    0.824000|    0.011994|
|         845|   -8.943751|  -11.588042|    0.824000|    0.011994|
|         846|   -8.943131|  -11.586845|    0.824000|    0.011994|
|         847|   -8.942788|  -11.585315|    0.824000|    0.011994|
|         848|   -8.942733|  -11.583513|    0.824000|    0.011994|
|         849|   -8.942972|  -11.581505|    0.824000|    0.011994|
|         850|   -8.943512|  -11.579353|    0.824000|    0.011994|
|         851|   -8.944354|  -11.577120|    0.824000|    0.011994|
|         852|   -8.945499|  -11.574864|    0.824000|    0.011994|
|         853|   -8.946944|  -11.572641|    0.824000|    0.011994|
|         854|   -8.948687|  -11.570502|    0.824000|    0.011994|
|         855|   -8.950716|  -11.568493|    0.824000|    0.011994|
|         856|   -8.953026|  -11.566658|    0.824000|    0.011994|
|         857|   -8.955599|  -11.565033|    0.824000|    0.011994|
|         858|   -8.958422|  -11.563652|    0.824000|    0.011994|
|         859|   -8.961478|  -11.562544|    0.824000|    0.011994|
|         860|   -8.964743|  -11.561733|    0.824000|    0.011994|
|         861|   -8.968192|  -11.561240|    0.824000|    0.011994|
|         862|   -8.971800|  -11.561082|    0.824000|    0.011994|
|         863|   -8.975534|  -11.561272|    0.824000|    0.011994|
|         864|   -8.979364|  -11.561819|    0.824000|    0.011994|
|         865|   -8.983253|  -11.562729|    0.824000|    0.011994|
|         866|   -8.987161|  -11.564005|    0.824000|    0.011994|
|         867|   -8.991053|  -11.565647|    0.824000|    0.011994|
|         868|   -8.994882|  -11.567652|    0.824000|    0.011994|
|         869|   -8.998608|  -11.570011|    0.824000|    0.011994|
|         870|   -9.002188|  -11.572717|    0.824000|    0.011994|
|         871|   -9.005580|  -11.575755|    0.824000|    0.011994|
|         872|   -9.008742|  -11.579109|    0.824000|    0.011994|
|         873|   -9.011635|  -11.582759|    0.824000|    0.011994|
|         874|   -9.014227|  -11.586683|    0.824000|    0.011994|
|         875|   -9.016485|  -11.590852|    0.824000|    0.011994|
|         876|   -9.018383|  -11.595236|    0.824000|    0.011994|
|         877|   -9.019904|  -11.599801|    0.824000|    0.011994|
|         878|   -9.021034|  -11.604509|    0.824000|    0.011994|
|         879|   -9.021767|  -11.609318|    0.824000|    0.011994|
|         880|   -9.022107|  -11.614184|    0.824000|    0.011994|
|         881|   -9.022060|  -11.619059|    0.824000|    0.011994|
|         882|   -9.021646|  -11.623891|    0.824000|    0.011994|
|         883|   -9.020885|  -11.628629|    0.824000|    0.011994|
|         884|   -9.019808|  -11.633219|    0.824000|    0.011994|
|         885|   -9.018444|  -11.637608|    0.824000|    0.011994|
|         886|   -9.016836|  -11.641742|    0.824000|    0.011994|
|         887|   -9.015023|  -11.645571|    0.824000|    0.011994|
|         888|   -9.013046|  -11.649049|    0.824000|    0.011994|
|         889|   -9.010950|  -11.652133|    0.824000|    0.011994|
|         890|   -9.008780|  -11.654789|    0.824000|    0.011994|
|         891|   -9.006579|  -11.656989|    0.824000|    0.011994|
|         892|   -9.004390|  -11.658715|    0.824000|    0.011994|
|         893|   -9.002252|  -11.659956|    0.824000|    0.011994|
|         894|   -9.000205|  -11.660713|    0.824000|    0.011994|
|         895|   -8.998287|  -11.660997|    0.824000|    0.011994|
|         896|   -8.996530|  -11.660827|    0.824000|    0.011994|
|         897|   -8.994965|  -11.660231|    0.824000|    0.011994|
|         898|   -8.993621|  -11.659246|    0.824000|    0.011994|
|         899|   -8.992524|  -11.657914|    0.824000|    0.011994|
|         900|   -8.991695|  -11.656285|    0.824000|    0.011994|
|         901|   -8.991157|  -11.654410|    0.824000|    0.011994|
|         902|   -8.990924|  -11.652343|    0.824000|    0.011994|
|         903|   -8.991013|  -11.650140|    0.824000|    0.011994|
|         904|   -8.991434|  -11.647857|    0.824000|    0.011994|
|         905|   -8.992199|  -11.645550|    0.824000|    0.011994|
|         906|   -8.993314|  -11.643271|    0.824000|    0.011994|
|         907|   -8.994785|  -11.641070|    0.824000|    0.011994|
|         908|   -8.996612|  -11.638996|    0.824000|    0.011994|
|         909|   -8.998797|  -11.637094|    0.824000|    0.011994|
|         910|   -9.001339|  -11.635405|    0.824000|    0.011994|
|         911|   -9.004230|  -11.633968|    0.824000|    0.011994|
|         912|   -9.007465|  -11.632815|    0.824000|    0.011994|
|         913|   -9.011033|  -11.631980|    0.824000|    0.011994|
|         914|   -9.014924|  -11.631490|    0.824000|    0.011994|
|         915|   -9.019121|  -11.631369|    0.824000|    0.011994|
|         916|   -9.023605|  -11.631640|    0.824000|    0.011994|
|         917|   -9.028357|  -11.632322|    0.824000|    0.011994|
|         918|   -9.033350|  -11.633431|    0.824000|    0.011994|
|         919|   -9.038560|  -11.634981|    0.824000|    0.011994|
|         920|   -9.043955|  -11.636983|    0.824000|    0.011994|
|         921|   -9.049500|  -11.639447|    0.824000|    0.011994|
|         922|   -9.055156|  -11.642379|    0.824000|    0.011994|
|         923|   -9.060883|  -11.645782|    0.824000|    0.011994|
|         924|   -9.066640|  -11.649660|    0.824000|    0.011994|
|         925|   -9.072378|  -11.654011|    0.824000|    0.011994|
|         926|   -9.078050|  -11.658832|    0.824000|    0.011994|
|         927|   -9.083605|  -11.664118|    0.824000|    0.011994|
|         928|   -9.088991|  -11.669859|    0.824000|    0.011994|
|         929|   -9.094159|  -11.676044|    0.824000|    0.011994|
|         930|   -9.099056|  -11.682656|    0.824000|    0.011994|
|         931|   -9.103638|  -11.689676|    0.824000|    0.011994|
|         932|   -9.107859|  -11.697081|    0.824000|    0.011994|
|         933|   -9.111681|  -11.704841|    0.824000|    0.011994|
|         934|   -9.115069|  -11.712924|    0.824000|    0.011994|
|         935|   -9.117998|  -11.721290|    0.824000|    0.011994|
|         936|   -9.120451|  -11.729893|    0.824000|    0.011994|
|         937|   -9.122419|  -11.738683|    0.824000|    0.011994|
|         938|   -9.123904|  -11.747600|    0.824000|    0.011994|
|         939|   -9.124910|  -11.756580|    0.824000|    0.011994|
|         940|   -9.125460|  -11.765552|    0.824000|    0.011994|
|         941|   -9.125577|  -11.774439|    0.824000|    0.011994|
|         942|   -9.125292|  -11.783157|    0.824000|    0.011994|
|         943|   -9.124651|  -11.791621|    0.824000|    0.011994|
|         944|   -9.123690|  -11.799740|    0.824000|    0.011994|
|         945|   -9.122462|  -11.807428|    0.824000|    0.011994|
|         946|   -9.121012|  -11.814598|    0.824000|    0.011994|
|         947|   -9.119396|  -11.821169|    0.824000|    0.011994|
|         948|   -9.117660|  -11.827071|    0.824000|    0.011994|
|         949|   -9.115858|  -11.832244|    0.824000|    0.011994|
|         950|   -9.114038|  -11.836644|    0.824000|    0.011994|
|         951|   -9.112247|  -11.840243|    0.824000|    0.011994|
|         952|   -9.110525|  -11.843034|    0.824000|    0.011994|
|         953|   -9.108917|  -11.845025|    0.824000|    0.011994|
|         954|   -9.107460|  -11.846247|    0.824000|    0.011994|
|         955|   -9.106185|  -11.846744|    0.824000|    0.011994|
|         956|   -9.105127|  -11.846577|    0.824000|    0.011994|
|         957|   -9.104312|  -11.845818|    0.824000|    0.011994|
|         958|   -9.103764|  -11.844550|    0.824000|    0.011994|
|         959|   -9.103503|  -11.842857|    0.824000|    0.011994|
|         960|   -9.103552|  -11.840829|    0.824000|    0.011994|
|         961|   -9.103922|  -11.838555|    0.824000|    0.011994|
|         962|   -9.104627|  -11.836122|    0.824000|    0.011994|
|         963|   -9.105678|  -11.833611|    0.824000|    0.011994|
|         964|   -9.107080|  -11.831100|    0.824000|    0.011994|
|         965|   -9.108841|  -11.828659|    0.824000|    0.011994|
|         966|   -9.110961|  -11.826352|    0.824000|    0.011994|
|         967|   -9.113443|  -11.824236|    0.824000|    0.011994|
|         968|   -9.116278|  -11.822360|    0.824000|    0.011994|
|         969|   -9.119468|  -11.820767|    0.824000|    0.011994|
|         970|   -9.123003|  -11.819495|    0.824000|    0.011994|
|         971|   -9.126875|  -11.818572|    0.824000|    0.011994|
|         972|   -9.131067|  -11.818024|    0.824000|    0.011994|
|         973|   -9.135563|  -11.817870|    0.824000|    0.011994|
|         974|   -9.140349|  -11.818122|    0.824000|    0.011994|
|         975|   -9.145402|  -11.818790|    0.824000|    0.011994|
|         976|   -9.150698|  -11.819878|    0.824000|    0.011994|
|         977|   -9.156204|  -11.821383|    0.824000|    0.011994|
|         978|   -9.161891|  -11.823302|    0.824000|    0.011994|
|         979|   -9.167728|  -11.825622|    0.824000|    0.011994|
|         980|   -9.173673|  -11.828330|    0.824000|    0.011994|
|         981|   -9.179682|  -11.831404|    0.824000|    0.011994|
|         982|   -9.185717|  -11.834820|    0.824000|    0.011994|
|         983|   -9.191726|  -11.838548|    0.824000|    0.011994|
|         984|   -9.197660|  -11.842550|    0.824000|    0.011994|
|         985|   -9.203468|  -11.846786|    0.824000|    0.011994|
|         986|   -9.209096|  -11.851208|    0.824000|    0.011994|
|         987|   -9.214497|  -11.855762|    0.824000|    0.011994|
|         988|   -9.219618|  -11.860389|    0.824000|    0.011994|
|         989|   -9.224409|  -11.865025|    0.824000|    0.011994|
|         990|   -9.228828|  -11.869600|    0.824000|    0.011994|
|         991|   -9.232834|  -11.874040|    0.824000|    0.011994|
|         992|   -9.236395|  -11.878267|    0.824000|    0.011994|
|         993|   -9.239487|  -11.882203|    0.824000|    0.011994|
|         994|   -9.242089|  -11.885771|    0.824000|    0.011994|
|         995|   -9.244198|  -11.888893|    0.824000|    0.011994|
|         996|   -9.245815|  -11.891500|    0.824000|    0.011994|
|         997|   -9.246946|  -11.893527|    0.824000|    0.011994|
|         998|   -9.247612|  -11.894920|    0.824000|    0.011994|
|         999|   -9.247840|  -11.895639|    0.824000|    0.011994|
|        1000|   -9.247668|  -11.895656|    0.824000|    0.011994|
|        1001|   -9.247131|  -11.894958|    0.824000|    0.011994|
|        1002|   -9.246279|  -11.893549|    0.824000|    0.011994|
[...]
|        3013|   -6.009294|   -7.912529|    0.824238|    0.011999|
|        3014|   -6.017358|   -7.916371|    0.824238|    0.011999|
|        3015|   -6.025282|   -7.920187|    0.824239|    0.011999|
|        3016|   -6.032994|   -7.923998|    0.824239|    0.011999|
|        3017|   -6.040429|   -7.927823|    0.824239|    0.011999|
|        3018|   -6.047527|   -7.931677|    0.824239|    0.011999|
|        3019|   -6.054234|   -7.935574|    0.824239|    0.011999|
|        3020|   -6.060507|   -7.939525|    0.824239|    0.011999|
|        3021|   -6.066313|   -7.943538|    0.824239|    0.011998|
|        3022|   -6.071630|   -7.947618|    0.824239|    0.011998|
|        3023|   -6.076452|   -7.951767|    0.824240|    0.011998|
|        3024|   -6.080784|   -7.955987|    0.824240|    0.011998|
|        3025|   -6.084644|   -7.960277|    0.824240|    0.011998|
|        3026|   -6.088061|   -7.964637|    0.824240|    0.011998|
|        3027|   -6.091073|   -7.969064|    0.824240|    0.011998|
|        3028|   -6.093729|   -7.973551|    0.824240|    0.011998|
|        3029|   -6.096083|   -7.978094|    0.824240|    0.011998|
|        3030|   -6.098193|   -7.982686|    0.824240|    0.011998|
|        3031|   -6.100117|   -7.987323|    0.824240|    0.011998|
|        3032|   -6.101918|   -7.991999|    0.824240|    0.011998|
|        3033|   -6.103654|   -7.996711|    0.824241|    0.011998|
|        3034|   -6.105383|   -8.001457|    0.824241|    0.011998|
|        3035|   -6.107157|   -8.006237|    0.824241|    0.011998|
|        3036|   -6.109024|   -8.011052|    0.824241|    0.011998|
|        3037|   -6.111026|   -8.015904|    0.824241|    0.011998|
|        3038|   -6.113199|   -8.020795|    0.824241|    0.011998|
|        3039|   -6.115572|   -8.025731|    0.824241|    0.011998|
|        3040|   -6.118169|   -8.030715|    0.824242|    0.011998|
|        3041|   -6.121006|   -8.035752|    0.824242|    0.011998|
|        3042|   -6.124091|   -8.040847|    0.824242|    0.011998|
|        3043|   -6.127428|   -8.046004|    0.824242|    0.011998|
|        3044|   -6.131011|   -8.051227|    0.824242|    0.011999|
|        3045|   -6.134831|   -8.056517|    0.824242|    0.011999|
|        3046|   -6.138871|   -8.061876|    0.824242|    0.011999|
|        3047|   -6.143107|   -8.067304|    0.824243|    0.011999|
|        3048|   -6.147511|   -8.072802|    0.824243|    0.011999|
|        3049|   -6.152049|   -8.078367|    0.824243|    0.011999|
|        3050|   -6.156683|   -8.083998|    0.824243|    0.011999|
|        3051|   -6.161373|   -8.089692|    0.824243|    0.011999|
|        3052|   -6.166072|   -8.095443|    0.824243|    0.011999|
|        3053|   -6.170737|   -8.101248|    0.824244|    0.011999|
|        3054|   -6.175321|   -8.107101|    0.824244|    0.011999|
|        3055|   -6.179779|   -8.112996|    0.824244|    0.011999|
|        3056|   -6.184071|   -8.118929|    0.824244|    0.011999|
|        3057|   -6.188157|   -8.124894|    0.824244|    0.012000|
|        3058|   -6.192007|   -8.130887|    0.824244|    0.012000|
|        3059|   -6.195594|   -8.136903|    0.824245|    0.012000|
|        3060|   -6.198901|   -8.142939|    0.824245|    0.012000|
|        3061|   -6.201920|   -8.148993|    0.824245|    0.012000|
|        3062|   -6.204650|   -8.155063|    0.824245|    0.012000|
|        3063|   -6.207100|   -8.161147|    0.824245|    0.012000|
|        3064|   -6.209286|   -8.167246|    0.824245|    0.012000|
|        3065|   -6.211235|   -8.173361|    0.824245|    0.012000|
|        3066|   -6.212977|   -8.179493|    0.824246|    0.012000|
|        3067|   -6.214550|   -8.185644|    0.824246|    0.012000|
|        3068|   -6.215998|   -8.191816|    0.824246|    0.012000|
|        3069|   -6.217363|   -8.198012|    0.824246|    0.012000|
|        3070|   -6.218690|   -8.204235|    0.824246|    0.012001|
|        3071|   -6.220026|   -8.210490|    0.824246|    0.012001|
|        3072|   -6.221417|   -8.216779|    0.824246|    0.012001|
|        3073|   -6.222904|   -8.223105|    0.824246|    0.012001|
|        3074|   -6.224530|   -8.229470|    0.824246|    0.012001|
|        3075|   -6.226331|   -8.235875|    0.824247|    0.012001|
|        3076|   -6.228342|   -8.242320|    0.824247|    0.012001|
|        3077|   -6.230590|   -8.248803|    0.824247|    0.012001|
|        3078|   -6.233102|   -8.255323|    0.824247|    0.012001|
|        3079|   -6.235898|   -8.261877|    0.824247|    0.012001|
|        3080|   -6.238992|   -8.268463|    0.824247|    0.012001|
|        3081|   -6.242396|   -8.275076|    0.824247|    0.012001|
|        3082|   -6.246113|   -8.281713|    0.824247|    0.012001|
|        3083|   -6.250146|   -8.288366|    0.824247|    0.012001|
|        3084|   -6.254488|   -8.295030|    0.824247|    0.012001|
|        3085|   -6.259131|   -8.301698|    0.824247|    0.012001|
|        3086|   -6.264058|   -8.308363|    0.824247|    0.012001|
|        3087|   -6.269251|   -8.315018|    0.824247|    0.012001|
|        3088|   -6.274685|   -8.321656|    0.824247|    0.012001|
|        3089|   -6.280330|   -8.328272|    0.824247|    0.012001|
|        3090|   -6.286153|   -8.334860|    0.824247|    0.012001|
|        3091|   -6.292115|   -8.341414|    0.824247|    0.012001|
|        3092|   -6.298176|   -8.347932|    0.824247|    0.012001|
|        3093|   -6.304289|   -8.354410|    0.824247|    0.012001|
|        3094|   -6.310407|   -8.360845|    0.824247|    0.012001|
|        3095|   -6.316482|   -8.367238|    0.824247|    0.012001|
|        3096|   -6.322463|   -8.373588|    0.824247|    0.012001|
|        3097|   -6.328301|   -8.379897|    0.824247|    0.012001|
|        3098|   -6.333948|   -8.386166|    0.824247|    0.012000|
|        3099|   -6.339358|   -8.392401|    0.824247|    0.012000|
|        3100|   -6.344491|   -8.398606|    0.824247|    0.012000|
|        3101|   -6.349311|   -8.404786|    0.824247|    0.012000|
|        3102|   -6.353787|   -8.410950|    0.824247|    0.012000|
|        3103|   -6.357896|   -8.417104|    0.824247|    0.012000|
|        3104|   -6.361623|   -8.423257|    0.824247|    0.012000|
|        3105|   -6.364960|   -8.429416|    0.824247|    0.012000|
|        3106|   -6.367905|   -8.435589|    0.824247|    0.012000|
|        3107|   -6.370465|   -8.441784|    0.824248|    0.012000|
|        3108|   -6.372652|   -8.448005|    0.824248|    0.012000|
|        3109|   -6.374484|   -8.454258|    0.824248|    0.012000|
|        3110|   -6.375983|   -8.460546|    0.824248|    0.012000|
|        3111|   -6.377175|   -8.466870|    0.824248|    0.011999|
|        3112|   -6.378085|   -8.473226|    0.824248|    0.011999|
|        3113|   -6.378742|   -8.479613|    0.824248|    0.011999|
|        3114|   -6.379174|   -8.486022|    0.824248|    0.011999|
|        3115|   -6.379408|   -8.492444|    0.824248|    0.011999|
|        3116|   -6.379470|   -8.498866|    0.824248|    0.011999|
|        3117|   -6.379381|   -8.505273|    0.824249|    0.011999|
|        3118|   -6.379163|   -8.511648|    0.824249|    0.011999|
|        3119|   -6.378834|   -8.517972|    0.824249|    0.011999|
|        3120|   -6.378409|   -8.524221|    0.824249|    0.011999|
|        3121|   -6.377901|   -8.530375|    0.824249|    0.011998|
|        3122|   -6.377321|   -8.536410|    0.824249|    0.011998|
|        3123|   -6.376676|   -8.542302|    0.824250|    0.011998|
|        3124|   -6.375974|   -8.548031|    0.824250|    0.011998|
|        3125|   -6.375219|   -8.553575|    0.824250|    0.011998|
|        3126|   -6.374415|   -8.558916|    0.824250|    0.011998|
|        3127|   -6.373566|   -8.564038|    0.824250|    0.011998|
|        3128|   -6.372674|   -8.568928|    0.824250|    0.011998|
|        3129|   -6.371741|   -8.573577|    0.824251|    0.011998|
|        3130|   -6.370769|   -8.577980|    0.824251|    0.011998|
|        3131|   -6.369760|   -8.582133|    0.824251|    0.011998|
|        3132|   -6.368718|   -8.586039|    0.824251|    0.011997|
|        3133|   -6.367645|   -8.589702|    0.824251|    0.011997|
|        3134|   -6.366545|   -8.593128|    0.824252|    0.011997|
|        3135|   -6.365421|   -8.596326|    0.824252|    0.011997|
|        3136|   -6.364279|   -8.599307|    0.824252|    0.011997|
|        3137|   -6.363123|   -8.602083|    0.824252|    0.011997|
|        3138|   -6.361961|   -8.604664|    0.824252|    0.011997|
|        3139|   -6.360797|   -8.607061|    0.824252|    0.011997|
|        3140|   -6.359641|   -8.609286|    0.824252|    0.011997|
|        3141|   -6.358500|   -8.611347|    0.824253|    0.011997|
|        3142|   -6.357383|   -8.613253|    0.824253|    0.011997|
|        3143|   -6.356300|   -8.615011|    0.824253|    0.011997|
|        3144|   -6.355260|   -8.616626|    0.824253|    0.011997|
|        3145|   -6.354277|   -8.618104|    0.824253|    0.011997|
|        3146|   -6.353363|   -8.619447|    0.824253|    0.011997|
|        3147|   -6.352529|   -8.620660|    0.824253|    0.011997|
|        3148|   -6.351790|   -8.621746|    0.824254|    0.011997|
|        3149|   -6.351158|   -8.622708|    0.824254|    0.011997|
|        3150|   -6.350650|   -8.623550|    0.824254|    0.011997|
|        3151|   -6.350279|   -8.624278|    0.824254|    0.011997|
|        3152|   -6.350061|   -8.624898|    0.824254|    0.011997|
|        3153|   -6.350012|   -8.625417|    0.824254|    0.011997|
|        3154|   -6.350146|   -8.625847|    0.824254|    0.011997|
|        3155|   -6.350481|   -8.626197|    0.824254|    0.011997|
|        3156|   -6.351029|   -8.626482|    0.824254|    0.011997|
|        3157|   -6.351805|   -8.626715|    0.824254|    0.011997|
|        3158|   -6.352822|   -8.626911|    0.824255|    0.011997|
|        3159|   -6.354093|   -8.627088|    0.824255|    0.011997|
|        3160|   -6.355628|   -8.627262|    0.824255|    0.011997|
|        3161|   -6.357435|   -8.627451|    0.824255|    0.011997|
|        3162|   -6.359522|   -8.627670|    0.824255|    0.011997|
|        3163|   -6.361895|   -8.627937|    0.824255|    0.011997|
|        3164|   -6.364555|   -8.628267|    0.824255|    0.011997|
|        3165|   -6.367504|   -8.628675|    0.824255|    0.011997|
|        3166|   -6.370737|   -8.629174|    0.824255|    0.011997|
|        3167|   -6.374251|   -8.629777|    0.824255|    0.011997|
|        3168|   -6.378037|   -8.630493|    0.824255|    0.011997|
|        3169|   -6.382082|   -8.631330|    0.824255|    0.011997|
|        3170|   -6.386372|   -8.632296|    0.824255|    0.011997|
|        3171|   -6.390888|   -8.633397|    0.824255|    0.011997|
|        3172|   -6.395607|   -8.634635|    0.824255|    0.011997|
|        3173|   -6.400503|   -8.636013|    0.824255|    0.011998|
|        3174|   -6.405547|   -8.637531|    0.824255|    0.011998|
|        3175|   -6.410707|   -8.639188|    0.824255|    0.011998|
|        3176|   -6.415944|   -8.640981|    0.824255|    0.011998|
|        3177|   -6.421222|   -8.642907|    0.824255|    0.011998|
|        3178|   -6.426497|   -8.644963|    0.824255|    0.011998|
|        3179|   -6.431726|   -8.647142|    0.824255|    0.011998|
|        3180|   -6.436863|   -8.649441|    0.824255|    0.011998|
|        3181|   -6.441864|   -8.651853|    0.824255|    0.011998|
|        3182|   -6.446683|   -8.654375|    0.824255|    0.011998|
|        3183|   -6.451274|   -8.657000|    0.824255|    0.011998|
|        3184|   -6.455598|   -8.659723|    0.824255|    0.011998|
|        3185|   -6.459614|   -8.662539|    0.824255|    0.011999|
|        3186|   -6.463289|   -8.665444|    0.824255|    0.011999|
|        3187|   -6.466594|   -8.668432|    0.824255|    0.011999|
|        3188|   -6.469507|   -8.671499|    0.824255|    0.011999|
|        3189|   -6.472010|   -8.674641|    0.824255|    0.011999|
|        3190|   -6.474096|   -8.677853|    0.824255|    0.011999|
|        3191|   -6.475763|   -8.681132|    0.824255|    0.011999|
|        3192|   -6.477018|   -8.684474|    0.824254|    0.011999|
|        3193|   -6.477872|   -8.687876|    0.824254|    0.011999|
|        3194|   -6.478345|   -8.691335|    0.824254|    0.011999|
|        3195|   -6.478461|   -8.694846|    0.824254|    0.011999|
|        3196|   -6.478249|   -8.698406|    0.824254|    0.011999|
|        3197|   -6.477743|   -8.702008|    0.824254|    0.011999|
|        3198|   -6.476979|   -8.705646|    0.824254|    0.011999|
|        3199|   -6.475994|   -8.709316|    0.824254|    0.011999|
|        3200|   -6.474828|   -8.713011|    0.824254|    0.012000|
|        3201|   -6.473520|   -8.716725|    0.824253|    0.012000|
|        3202|   -6.472108|   -8.720453|    0.824253|    0.012000|
|        3203|   -6.470630|   -8.724189|    0.824253|    0.012000|
|        3204|   -6.469121|   -8.727928|    0.824253|    0.012000|
|        3205|   -6.467614|   -8.731664|    0.824253|    0.012000|
|        3206|   -6.466140|   -8.735394|    0.824253|    0.012000|
|        3207|   -6.464729|   -8.739111|    0.824253|    0.012000|
|        3208|   -6.463404|   -8.742813|    0.824253|    0.012000|
|        3209|   -6.462190|   -8.746495|    0.824253|    0.012000|
|        3210|   -6.461107|   -8.750155|    0.824252|    0.012000|
|        3211|   -6.460171|   -8.753789|    0.824252|    0.012000|
|        3212|   -6.459399|   -8.757398|    0.824252|    0.012000|
|        3213|   -6.458803|   -8.760980|    0.824252|    0.012000|
|        3214|   -6.458393|   -8.764535|    0.824252|    0.012000|
|        3215|   -6.458178|   -8.768066|    0.824252|    0.012000|
|        3216|   -6.458165|   -8.771574|    0.824252|    0.012000|
|        3217|   -6.458357|   -8.775062|    0.824252|    0.012000|
|        3218|   -6.458759|   -8.778534|    0.824252|    0.012000|
|        3219|   -6.459371|   -8.781993|    0.824252|    0.012000|
|        3220|   -6.460195|   -8.785444|    0.824252|    0.012000|
|        3221|   -6.461231|   -8.788891|    0.824252|    0.012000|
|        3222|   -6.462476|   -8.792338|    0.824252|    0.011999|
|        3223|   -6.463929|   -8.795788|    0.824252|    0.011985|
+-----------------------------------------------------------------------+
|Fixed CL Mode (Finite Difference)       |Value                         |
+-----------------------------------------------------------------------+
|Delta CL / Delta AoA                    |0.251643                      |
|Delta CD / Delta CL                     |0.0200494                     |
|Delta CMz / Delta CL                    |0.0165962                     |
+-----------------------------------------------------------------------+
Writing Flow Meta-Data file: flow.meta

--------------------------- Finalizing Solver ---------------------------
Deleted CNumerics container.
Deleted CIntegration container.
Deleted CSolver container.
Deleted CIteration container.
Deleted CInterface container.
Deleted CGeometry container.
Deleted CFreeFormDefBox class.
Deleted CSurfaceMovement class.
Deleted CVolumetricMovement class.
Deleted CConfig container.
Deleted nInst container.
Deleted COutput class.
-------------------------------------------------------------------------

------------------------- Exit Success (SU2_CFD) ------------------------


-------------------------------------------------------------------------
|    ___ _   _ ___                                                      |
|   / __| | | |_  )   Release 8.0.0 "Harrier"                           |
|   \__ \ |_| |/ /                                                      |
|   |___/\___//___|   Suite (Solution Exporting Code)                   |
|                                                                       |
-------------------------------------------------------------------------
| SU2 Project Website: https://su2code.github.io                        |
|                                                                       |
| The SU2 Project is maintained by the SU2 Foundation                   |
| (http://su2foundation.org)                                            |
-------------------------------------------------------------------------
| Copyright 2012-2023, SU2 Contributors                                 |
|                                                                       |
| SU2 is free software; you can redistribute it and/or                  |
| modify it under the terms of the GNU Lesser General Public            |
| License as published by the Free Software Foundation; either          |
| version 2.1 of the License, or (at your option) any later version.    |
|                                                                       |
| SU2 is distributed in the hope that it will be useful,                |
| but WITHOUT ANY WARRANTY; without even the implied warranty of        |
| MERCHANTABILITY or FITNESS FOR A PARTICULAR PURPOSE. See the GNU      |
| Lesser General Public License for more details.                       |
|                                                                       |
| You should have received a copy of the GNU Lesser General Public      |
| License along with SU2. If not, see <http://www.gnu.org/licenses/>.   |
-------------------------------------------------------------------------

----------------- Physical Case Definition ( Zone 0 ) -------------------
Input mesh file name: mesh_RAE2822_turb_deform.su2

-------------------- Output Information ( Zone 0 ) ----------------------
The tabular file format is CSV (.csv).
Flow variables file name: flow.

------------- Config File Boundary Information ( Zone 0 ) ---------------
+-----------------------------------------------------------------------+
|                        Marker Type|                        Marker Name|
+-----------------------------------------------------------------------+
|                          Far-field|                           FARFIELD|
+-----------------------------------------------------------------------+
|                     Heat flux wall|                            AIRFOIL|
+-----------------------------------------------------------------------+
Two dimensional problem.
13937 grid points before partitioning.
22842 volume elements before partitioning.
2 surface markers.
192 boundary elements in index 0 (Marker = AIRFOIL).
40 boundary elements in index 1 (Marker = FARFIELD).
Executing the partitioning functions.
Building the graph adjacency structure.
Calling ParMETIS... graph partitioning complete (831 edge cuts).
Distributing ParMETIS coloring.
Rebalancing vertices.
Rebalancing volume element connectivity.
Rebalancing markers and surface elements.
14875 vertices including ghost points. 
23674 interior elements including halo cells. 
18780 triangles.
4894 quadrilaterals.
Establishing MPI communication patterns.
Identify vertices.
Storing a mapping from global to local point index.

------------------------- Solution Postprocessing -----------------------
Reading and storing the solution from restart_flow.
Volume output fields: COORDINATES, SOLUTION
  Info: Ignoring the following screen output fields:
  RMS_DENSITY, RMS_NU_TILDE, LIFT, DRAG
Screen output fields: INNER_ITER
  Info: Ignoring the following history output groups:
  RMS_RES, AERO_COEFF
History output group(s): ITER
Warning: No (valid) fields chosen for convergence monitoring. Convergence monitoring inactive.
Warning: No (valid) fields chosen for time convergence monitoring. Time convergence monitoring inactive.
|Paraview                           |flow.vtu                           |
|Paraview surface                   |surface_flow.vtu                   |
|CSV file                           |surface_flow.csv                   |

------------------------- Finalize Solver -------------------------
Deleted CGeometry container.
Deleted CSolver class.
Deleted CConfig container.
Deleted COutput class.

Completed in 0.018741 seconds on 6 cores.

------------------------- Exit Success (SU2_SOL) ------------------------

