
-------------------------------------------------------------------------
|    ___ _   _ ___                                                      |
|   / __| | | |_  )   Release 8.0.0 "Harrier"                           |
|   \__ \ |_| |/ /                                                      |
|   |___/\___//___|   Suite (Computational Fluid Dynamics Code)         |
|                                                                       |
-------------------------------------------------------------------------
| SU2 Project Website: https://su2code.github.io                        |
|                                                                       |
| The SU2 Project is maintained by the SU2 Foundation                   |
| (http://su2foundation.org)                                            |
-------------------------------------------------------------------------
| Copyright 2012-2023, SU2 Contributors                                 |
|                                                                       |
| SU2 is free software; you can redistribute it and/or                  |
| modify it under the terms of the GNU Lesser General Public            |
| License as published by the Free Software Foundation; either          |
| version 2.1 of the License, or (at your option) any later version.    |
|                                                                       |
| SU2 is distributed in the hope that it will be useful,                |
| but WITHOUT ANY WARRANTY; without even the implied warranty of        |
| MERCHANTABILITY or FITNESS FOR A PARTICULAR PURPOSE. See the GNU      |
| Lesser General Public License for more details.                       |
|                                                                       |
| You should have received a copy of the GNU Lesser General Public      |
| License along with SU2. If not, see <http://www.gnu.org/licenses/>.   |
-------------------------------------------------------------------------

Parsing config file for zone 0

----------------- Physical Case Definition ( Zone 0 ) -------------------
Compressible RANS equations.
Turbulence model: Spalart-Allmaras-noft2
Hybrid RANS/LES: No Hybrid RANS/LES
Mach number: 0.734.
Angle of attack (AoA): 2.31 deg, and angle of sideslip (AoS): 0 deg.
Reynolds number: 6.5e+06. Reference length 1.
Fixed CL mode, target value: 0.824.
Reading and writing binary SU2 native restart files.
Read flow solution from: solution_flow.dat.
Dimensional simulation.
The reference area is 1 m^2.
The semi-span will be computed using the max y(3D) value.
The reference length is 1 m.
Reference origin for moment evaluation is (0.25, 0, 0).
Surface(s) where the force coefficients are evaluated: AIRFOIL.

Surface(s) plotted in the output file: AIRFOIL.
Surface(s) affected by the design variables: AIRFOIL.
Input mesh file name: mesh_RAE2822_turb_deform.su2

--------------- Space Numerical Integration ( Zone 0 ) ------------------
Jameson-Schmidt-Turkel scheme (2nd order in space) for the flow inviscid terms.
JST viscous coefficients (2nd & 4th): 0.5, 0.02.
The method includes a grid stretching correction (p = 0.3).
Scalar upwind solver for the turbulence model.
First order integration in space.
Average of gradients with correction (viscous flow terms).
Average of gradients with correction (viscous turbulence terms).
Gradient for viscous and source terms: inverse-distance weighted Least-Squares.

--------------- Time Numerical Integration  ( Zone 0 ) ------------------
Local time stepping (steady state simulation).
Euler implicit method for the flow equations.
FGMRES is used for solving the linear system.
Using a ILU(0) preconditioning.
Convergence criteria of the linear solver: 1e-06.
Max number of linear iterations: 10.
No CFL adaptation.
Courant-Friedrichs-Lewy number:       10
Euler implicit time integration for the turbulence model.

------------------ Convergence Criteria  ( Zone 0 ) ---------------------
Maximum number of solver subiterations: 5500.
Begin convergence monitoring at iteration 10.
Residual minimum value: 1e-12.
Cauchy series min. value: 1e-06.
Number of Cauchy elements: 100.
Begin windowed time average at iteration 0.

-------------------- Output Information ( Zone 0 ) ----------------------
File writing frequency: 
+------------------------------------+
|                     File| Frequency|
+------------------------------------+
|                  RESTART|     10000|
|                 PARAVIEW|     10000|
|         SURFACE_PARAVIEW|     10000|
|              SURFACE_CSV|     10000|
+------------------------------------+
Writing the convergence history file every 1 inner iterations.
Writing the screen convergence history every 1 inner iterations.
The tabular file format is CSV (.csv).
Convergence history file name: history_direct.
Forces breakdown file name: forces_breakdown.dat.
Surface file name: surface_flow.
Volume file name: flow.
Restart file name: restart_flow.dat.

------------- Config File Boundary Information ( Zone 0 ) ---------------
+-----------------------------------------------------------------------+
|                        Marker Type|                        Marker Name|
+-----------------------------------------------------------------------+
|                          Far-field|                           FARFIELD|
+-----------------------------------------------------------------------+
|                     Heat flux wall|                            AIRFOIL|
+-----------------------------------------------------------------------+

-------------------- Output Preprocessing ( Zone 0 ) --------------------

WARNING: SURFACE_PRESSURE_DROP can only be computed for at least 2 surfaces (outlet, inlet, ...)

Screen output fields: INNER_ITER, RMS_DENSITY, RMS_NU_TILDE, LIFT, DRAG
History output group(s): ITER, RMS_RES, AERO_COEFF
Convergence field(s): RMS_DENSITY
Warning: No (valid) fields chosen for time convergence monitoring. Time convergence monitoring inactive.
Volume output fields: COORDINATES, SOLUTION, PRIMITIVE

------------------- Geometry Preprocessing ( Zone 0 ) -------------------
Two dimensional problem.
13937 grid points before partitioning.
22842 volume elements before partitioning.
2 surface markers.
192 boundary elements in index 0 (Marker = AIRFOIL).
40 boundary elements in index 1 (Marker = FARFIELD).
Executing the partitioning functions.
Building the graph adjacency structure.
Calling ParMETIS... graph partitioning complete (831 edge cuts).
Distributing ParMETIS coloring.
Rebalancing vertices.
Rebalancing volume element connectivity.
Rebalancing markers and surface elements.
14875 vertices including ghost points. 
23674 interior elements including halo cells. 
18780 triangles.
4894 quadrilaterals.
Establishing MPI communication patterns.
Setting point connectivity.
Renumbering points (Reverse Cuthill McKee Ordering).
Recomputing point connectivity.
Setting element connectivity.
Checking the numerical grid orientation.
All volume elements are correctly orientend.
All surface elements are correctly orientend.
Identifying edges and vertices.
Setting the control volume structure.
Area of the computational grid: 32209.9.
Searching for the closest normal neighbors to the surfaces.
Storing a mapping from global to local point index.
Compute the surface curvature.
Max K: 205.29. Mean K: 8.3191. Standard deviation K: 26.978.
Checking for periodicity.
Computing mesh quality statistics for the dual control volumes.
+--------------------------------------------------------------+
|           Mesh Quality Metric|        Minimum|        Maximum|
+--------------------------------------------------------------+
|    Orthogonality Angle (deg.)|        74.4859|        89.9999|
|     CV Face Area Aspect Ratio|        1.00101|           3359|
|           CV Sub-Volume Ratio|        1.00067|        1219.42|
+--------------------------------------------------------------+
Finding max control volume width.
Communicating number of neighbors.
Wetted area = 2.0214 m.
Area projection in the x-plane = 0.127875 m, y-plane = 0.995873 m.
Max. coordinate in the x-direction = 1 m, y-direction = 0.0615728 m.
Min. coordinate in the x-direction = 0 m, y-direction = -0.0625437 m.
Computing wall distances.

-------------------- Solver Preprocessing ( Zone 0 ) --------------------
WARNING: AoA in the solution file (2.76628 deg.) +
         AoA offset in mesh file (0 deg.) = 2.76628 deg.
WARNING: SU2 will use the dCD/dCL provided in the direct solution file: 0.0196727.
WARNING: SU2 will use the dCMz/dCL provided in the direct solution file: 0.00856688.
Viscous flow: Computing pressure using the ideal gas law
based on the free-stream temperature and a density computed
from the Reynolds number.
Force coefficients computed using free-stream values.

-- Models:
+------------------------------------------------------------------------------+
|          Viscosity Model|        Conductivity Model|              Fluid Model|
+------------------------------------------------------------------------------+
|               SUTHERLAND|          CONSTANT_PRANDTL|             STANDARD_AIR|
+------------------------------------------------------------------------------+
-- Fluid properties:
+------------------------------------------------------------------------------+
|                  Name|    Dim. value|    Ref. value|      Unit|Non-dim. value|
+------------------------------------------------------------------------------+
|        Ref. Viscosity|     1.716e-05|             1|   N.s/m^2|     1.716e-05|
|      Sutherland Temp.|        273.15|             1|         K|        273.15|
|     Sutherland Const.|         110.4|             1|         K|         110.4|
+------------------------------------------------------------------------------+
|        Prandtl (Lam.)|             -|             -|         -|          0.71|
|       Prandtl (Turb.)|             -|             -|         -|           0.9|
+------------------------------------------------------------------------------+
|          Gas Constant|       287.058|             1|  N.m/kg.K|       287.058|
|      Spec. Heat Ratio|             -|             -|         -|           1.4|
+------------------------------------------------------------------------------+
-- Initial and free-stream conditions:
+------------------------------------------------------------------------------+
|                  Name|    Dim. value|    Ref. value|      Unit|Non-dim. value|
+------------------------------------------------------------------------------+
|       Static Pressure|         38515|             1|        Pa|         38515|
|               Density|      0.465631|             1|    kg/m^3|      0.465631|
|           Temperature|        288.15|             1|         K|        288.15|
|          Total Energy|        237984|             1|   m^2/s^2|        237984|
|            Velocity-X|       249.487|             1|       m/s|       249.487|
|            Velocity-Y|       12.0548|             1|       m/s|       12.0548|
|    Velocity Magnitude|       249.778|             1|       m/s|       249.778|
+------------------------------------------------------------------------------+
|             Viscosity|    1.7893e-05|             1|   N.s/m^2|    1.7893e-05|
|          Conductivity|             -|             1|   W/m^2.K|             -|
|     Turb. Kin. Energy|       233.959|             1|   m^2/s^2|       233.959|
|     Spec. Dissipation|        608834|             1|       1/s|        608834|
+------------------------------------------------------------------------------+
|           Mach Number|             -|             -|         -|         0.734|
|       Reynolds Number|             -|             -|         -|       6.5e+06|
+------------------------------------------------------------------------------+
Initialize Jacobian structure (Navier-Stokes). MG level: 0.
Initialize Jacobian structure (SA model).

------------------- Numerics Preprocessing ( Zone 0 ) -------------------

----------------- Integration Preprocessing ( Zone 0 ) ------------------

------------------- Iteration Preprocessing ( Zone 0 ) ------------------
Euler/Navier-Stokes/RANS fluid iteration.

------------------------------ Begin Solver -----------------------------

Simulation Run using the Single-zone Driver
WARNING: SU2 was not compiled for an AVX-capable architecture. Performance could be better,
         see https://su2code.github.io/docs_v7/Build-SU2-Linux-MacOS/#compiler-optimizations
+----------------------------------------------------------------+
|  Inner_Iter|    rms[Rho]|     rms[nu]|          CL|          CD|
+----------------------------------------------------------------+
|           0|   -6.287452|   -7.659038|    0.824004|    0.011997|
|           1|   -6.346050|   -7.766060|    0.824006|    0.011998|
|           2|   -6.408711|   -7.896908|    0.824007|    0.011998|
|           3|   -6.453917|   -8.052088|    0.824006|    0.011998|
|           4|   -6.481278|   -8.222369|    0.824006|    0.011998|
|           5|   -6.495460|   -8.353870|    0.824005|    0.011998|
|           6|   -6.500784|   -8.374030|    0.824005|    0.011998|
|           7|   -6.500876|   -8.333015|    0.824005|    0.011998|
|           8|   -6.498388|   -8.295648|    0.824005|    0.011998|
|           9|   -6.494598|   -8.270612|    0.824005|    0.011999|
|          10|   -6.489597|   -8.248018|    0.824006|    0.011999|
|          11|   -6.483012|   -8.220736|    0.824006|    0.011999|
|          12|   -6.474658|   -8.190468|    0.824007|    0.011999|
|          13|   -6.464771|   -8.163666|    0.824007|    0.011999|
|          14|   -6.453908|   -8.145749|    0.824007|    0.012000|
|          15|   -6.442726|   -8.139143|    0.824008|    0.012000|
|          16|   -6.431836|   -8.143747|    0.824008|    0.012000|
|          17|   -6.421772|   -8.157646|    0.824008|    0.012000|
|          18|   -6.412997|   -8.177418|    0.824008|    0.012000|
|          19|   -6.405915|   -8.198309|    0.824008|    0.012001|
|          20|   -6.400845|   -8.214962|    0.824008|    0.012001|
|          21|   -6.397969|   -8.223248|    0.824007|    0.012001|
|          22|   -6.397280|   -8.222333|    0.824007|    0.012001|
|          23|   -6.398566|   -8.214990|    0.824006|    0.012001|
|          24|   -6.401427|   -8.205711|    0.824005|    0.012001|
|          25|   -6.405332|   -8.198521|    0.824005|    0.012001|
|          26|   -6.409704|   -8.195921|    0.824004|    0.012001|
|          27|   -6.414007|   -8.198792|    0.824003|    0.012001|
|          28|   -6.417811|   -8.206678|    0.824002|    0.012001|
|          29|   -6.420818|   -8.218102|    0.824001|    0.012001|
|          30|   -6.422854|   -8.230919|    0.824000|    0.012001|
|          31|   -6.423836|   -8.242805|    0.823999|    0.012001|
|          32|   -6.423741|   -8.251884|    0.823998|    0.012001|
|          33|   -6.422597|   -8.257304|    0.823997|    0.012000|
|          34|   -6.420488|   -8.259431|    0.823996|    0.012000|
|          35|   -6.417557|   -8.259556|    0.823995|    0.012000|
|          36|   -6.414007|   -8.259325|    0.823995|    0.012000|
|          37|   -6.410083|   -8.260241|    0.823994|    0.011999|
|          38|   -6.406031|   -8.263400|    0.823993|    0.011999|
|          39|   -6.402071|   -8.269417|    0.823993|    0.011999|
|          40|   -6.398360|   -8.278463|    0.823992|    0.011999|
|          41|   -6.394984|   -8.290317|    0.823992|    0.011998|
|          42|   -6.391954|   -8.304407|    0.823991|    0.011998|
|          43|   -6.389217|   -8.319820|    0.823991|    0.011998|
|          44|   -6.386680|   -8.335326|    0.823990|    0.011997|
|          45|   -6.384223|   -8.349450|    0.823990|    0.011997|
|          46|   -6.381722|   -8.360651|    0.823990|    0.011997|
|          47|   -6.379061|   -8.367624|    0.823990|    0.011997|
|          48|   -6.376140|   -8.369652|    0.823990|    0.011996|
|          49|   -6.372880|   -8.366845|    0.823990|    0.011996|
|          50|   -6.369228|   -8.360108|    0.823989|    0.011996|
|          51|   -6.365153|   -8.350865|    0.823990|    0.011996|
|          52|   -6.360648|   -8.340688|    0.823990|    0.011996|
|          53|   -6.355730|   -8.330996|    0.823990|    0.011995|
|          54|   -6.350433|   -8.322891|    0.823990|    0.011995|
|          55|   -6.344807|   -8.317112|    0.823990|    0.011995|
|          56|   -6.338912|   -8.314065|    0.823991|    0.011995|
|          57|   -6.332816|   -8.313868|    0.823991|    0.011995|
|          58|   -6.326582|   -8.316411|    0.823991|    0.011995|
|          59|   -6.320272|   -8.321408|    0.823992|    0.011995|
|          60|   -6.313938|   -8.328449|    0.823992|    0.011994|
|          61|   -6.307620|   -8.337045|    0.823993|    0.011994|
|          62|   -6.301349|   -8.346681|    0.823994|    0.011994|
|          63|   -6.295148|   -8.356858|    0.823994|    0.011994|
|          64|   -6.289032|   -8.367132|    0.823995|    0.011994|
|          65|   -6.283016|   -8.377133|    0.823996|    0.011994|
|          66|   -6.277113|   -8.386579|    0.823996|    0.011994|
|          67|   -6.271339|   -8.395263|    0.823997|    0.011994|
|          68|   -6.265712|   -8.403037|    0.823997|    0.011994|
|          69|   -6.260255|   -8.409805|    0.823998|    0.011994|
|          70|   -6.254989|   -8.415507|    0.823998|    0.011994|
|          71|   -6.249936|   -8.420126|    0.823999|    0.011994|
|          72|   -6.245116|   -8.423682|    0.823999|    0.011994|
|          73|   -6.240541|   -8.426239|    0.824000|    0.011994|
|          74|   -6.236218|   -8.427890|    0.824000|    0.011994|
|          75|   -6.232146|   -8.428747|    0.824001|    0.011994|
|          76|   -6.228315|   -8.428915|    0.824001|    0.011994|
|          77|   -6.224707|   -8.428475|    0.824001|    0.011994|
|          78|   -6.221299|   -8.427480|    0.824001|    0.011994|
|          79|   -6.218066|   -8.425950|    0.824001|    0.011994|
|          80|   -6.214981|   -8.423891|    0.824001|    0.011994|
|          81|   -6.212022|   -8.421315|    0.824002|    0.011994|
|          82|   -6.209171|   -8.418263|    0.824002|    0.011994|
|          83|   -6.206419|   -8.414820|    0.824002|    0.011994|
|          84|   -6.203768|   -8.411123|    0.824002|    0.011994|
|          85|   -6.201229|   -8.407354|    0.824002|    0.011994|
|          86|   -6.198826|   -8.403724|    0.824002|    0.011994|
|          87|   -6.196588|   -8.400448|    0.824002|    0.011994|
|          88|   -6.194553|   -8.397730|    0.824002|    0.011994|
|          89|   -6.192763|   -8.395737|    0.824002|    0.011994|
|          90|   -6.191260|   -8.394591|    0.824002|    0.011994|
|          91|   -6.190087|   -8.394364|    0.824002|    0.011994|
|          92|   -6.189278|   -8.395073|    0.824002|    0.011994|
|          93|   -6.188866|   -8.396691|    0.824002|    0.011994|
|          94|   -6.188871|   -8.399151|    0.824002|    0.011994|
|          95|   -6.189307|   -8.402355|    0.824002|    0.011994|
|          96|   -6.190176|   -8.406190|    0.824002|    0.011994|
|          97|   -6.191469|   -8.410532|    0.824003|    0.011994|
|          98|   -6.193166|   -8.415258|    0.824003|    0.011994|
|          99|   -6.195236|   -8.420253|    0.824003|    0.011994|
|         100|   -6.197634|   -8.425415|    0.824003|    0.011995|
|         101|   -6.200308|   -8.430661|    0.824003|    0.011994|
+-----------------------------------------------------------------------+
|Fixed CL Mode                           |Value                         |
+-----------------------------------------------------------------------+
|Current CL                              |0.824003                      |
|Target CL                               |0.824                         |
|Previous AOA                            |2.76628                       |
|Changed AoA by                          |-1.49135e-05                  |
+-----------------------------------------------------------------------+
+----------------------------------------------------------------+
|  Inner_Iter|    rms[Rho]|     rms[nu]|          CL|          CD|
+----------------------------------------------------------------+
|         102|   -5.018396|   -8.426425|    0.824003|    0.011995|
|         103|   -5.393641|   -8.436180|    0.824003|    0.011995|
|         104|   -5.617439|   -8.442740|    0.824004|    0.011995|
|         105|   -5.689479|   -8.448640|    0.824004|    0.011995|
|         106|   -5.742212|   -8.454250|    0.824004|    0.011995|
|         107|   -5.809110|   -8.459665|    0.824004|    0.011995|
|         108|   -5.888425|   -8.464929|    0.824004|    0.011995|
|         109|   -5.967030|   -8.470082|    0.824004|    0.011995|
|         110|   -6.030030|   -8.475153|    0.824004|    0.011996|
|         111|   -6.071386|   -8.480163|    0.824004|    0.011996|
|         112|   -6.094054|   -8.485126|    0.824004|    0.011996|
|         113|   -6.102937|   -8.490067|    0.824004|    0.011996|
|         114|   -6.102671|   -8.495013|    0.824004|    0.011996|
|         115|   -6.098311|   -8.499986|    0.824004|    0.011996|
|         116|   -6.094412|   -8.504999|    0.824004|    0.011996|
|         117|   -6.093563|   -8.510055|    0.824004|    0.011996|
|         118|   -6.096033|   -8.515155|    0.824004|    0.011996|
|         119|   -6.100476|   -8.520301|    0.824004|    0.011996|
|         120|   -6.105073|   -8.525495|    0.824004|    0.011997|
|         121|   -6.108557|   -8.530741|    0.824004|    0.011997|
|         122|   -6.110652|   -8.536043|    0.824004|    0.011997|
|         123|   -6.111826|   -8.541408|    0.824004|    0.011997|
|         124|   -6.112750|   -8.546852|    0.824004|    0.011997|
|         125|   -6.113915|   -8.552396|    0.824004|    0.011997|
|         126|   -6.115537|   -8.558065|    0.824004|    0.011997|
|         127|   -6.117646|   -8.563891|    0.824004|    0.011997|
|         128|   -6.120192|   -8.569901|    0.824003|    0.011997|
|         129|   -6.123089|   -8.576117|    0.824003|    0.011997|
|         130|   -6.126229|   -8.582548|    0.824003|    0.011997|
|         131|   -6.129487|   -8.589192|    0.824003|    0.011997|
|         132|   -6.132751|   -8.596028|    0.824003|    0.011997|
|         133|   -6.135947|   -8.603017|    0.824003|    0.011997|
|         134|   -6.139053|   -8.610102|    0.824003|    0.011997|
|         135|   -6.142077|   -8.617207|    0.824003|    0.011997|
|         136|   -6.145034|   -8.624243|    0.824003|    0.011997|
|         137|   -6.147913|   -8.631108|    0.824003|    0.011997|
|         138|   -6.150662|   -8.637697|    0.824003|    0.011997|
|         139|   -6.153184|   -8.643905|    0.824003|    0.011997|
|         140|   -6.155354|   -8.649638|    0.824003|    0.011997|
|         141|   -6.157032|   -8.654817|    0.824003|    0.011997|
|         142|   -6.158099|   -8.659387|    0.824003|    0.011997|
|         143|   -6.158483|   -8.663321|    0.824003|    0.011997|
|         144|   -6.158180|   -8.666623|    0.824003|    0.011997|
|         145|   -6.157255|   -8.669326|    0.824002|    0.011997|
|         146|   -6.155823|   -8.671487|    0.824002|    0.011997|
|         147|   -6.154025|   -8.673186|    0.824002|    0.011997|
|         148|   -6.151995|   -8.674512|    0.824002|    0.011997|
|         149|   -6.149835|   -8.675558|    0.824002|    0.011997|
|         150|   -6.147610|   -8.676414|    0.824002|    0.011997|
|         151|   -6.145346|   -8.677161|    0.824002|    0.011997|
|         152|   -6.143039|   -8.677861|    0.824002|    0.011997|
|         153|   -6.140671|   -8.678559|    0.824002|    0.011997|
|         154|   -6.138224|   -8.679278|    0.824002|    0.011997|
|         155|   -6.135690|   -8.680025|    0.824002|    0.011997|
|         156|   -6.133073|   -8.680781|    0.824001|    0.011997|
|         157|   -6.130393|   -8.681509|    0.824001|    0.011997|
|         158|   -6.127683|   -8.682161|    0.824001|    0.011997|
|         159|   -6.124979|   -8.682681|    0.824001|    0.011997|
|         160|   -6.122321|   -8.683007|    0.824001|    0.011997|
|         161|   -6.119744|   -8.683082|    0.824000|    0.011996|
|         162|   -6.117279|   -8.682851|    0.824000|    0.011996|
|         163|   -6.114949|   -8.682277|    0.824000|    0.011996|
|         164|   -6.112773|   -8.681335|    0.824000|    0.011996|
|         165|   -6.110763|   -8.680022|    0.824000|    0.011996|
|         166|   -6.108927|   -8.678353|    0.824000|    0.011996|
|         167|   -6.107271|   -8.676363|    0.823999|    0.011996|
|         168|   -6.105796|   -8.674104|    0.823999|    0.011996|
|         169|   -6.104500|   -8.671641|    0.823999|    0.011996|
|         170|   -6.103379|   -8.669051|    0.823999|    0.011996|
|         171|   -6.102426|   -8.666410|    0.823999|    0.011996|
|         172|   -6.101631|   -8.663797|    0.823999|    0.011996|
|         173|   -6.100984|   -8.661289|    0.823998|    0.011996|
|         174|   -6.100472|   -8.658956|    0.823998|    0.011996|
|         175|   -6.100084|   -8.656857|    0.823998|    0.011996|
|         176|   -6.099807|   -8.655043|    0.823998|    0.011996|
|         177|   -6.099634|   -8.653549|    0.823998|    0.011996|
|         178|   -6.099558|   -8.652400|    0.823998|    0.011996|
|         179|   -6.099577|   -8.651611|    0.823998|    0.011996|
|         180|   -6.099691|   -8.651182|    0.823998|    0.011995|
|         181|   -6.099906|   -8.651108|    0.823998|    0.011995|
|         182|   -6.100229|   -8.651371|    0.823998|    0.011995|
|         183|   -6.100671|   -8.651949|    0.823998|    0.011995|
|         184|   -6.101245|   -8.652812|    0.823998|    0.011995|
|         185|   -6.101964|   -8.653928|    0.823998|    0.011995|
|         186|   -6.102842|   -8.655260|    0.823998|    0.011995|
|         187|   -6.103892|   -8.656771|    0.823998|    0.011995|
|         188|   -6.105121|   -8.658425|    0.823999|    0.011995|
|         189|   -6.106536|   -8.660187|    0.823999|    0.011995|
|         190|   -6.108137|   -8.662023|    0.823999|    0.011995|
|         191|   -6.109917|   -8.663905|    0.823999|    0.011995|
|         192|   -6.111865|   -8.665808|    0.823999|    0.011995|
|         193|   -6.113960|   -8.667714|    0.823999|    0.011995|
|         194|   -6.116176|   -8.669609|    0.823999|    0.011995|
|         195|   -6.118477|   -8.671483|    0.823999|    0.011995|
|         196|   -6.120824|   -8.673333|    0.824000|    0.011995|
|         197|   -6.123170|   -8.675161|    0.824000|    0.011995|
|         198|   -6.125465|   -8.676971|    0.824000|    0.011995|
|         199|   -6.127659|   -8.678774|    0.824000|    0.011995|
|         200|   -6.129702|   -8.680580|    0.824000|    0.011995|
|         201|   -6.131548|   -8.682404|    0.824000|    0.011995|
|         202|   -6.133156|   -8.684261|    0.824000|    0.011995|
|         203|   -6.134498|   -8.686165|    0.824001|    0.011995|
|         204|   -6.135556|   -8.688132|    0.824001|    0.011995|
|         205|   -6.136324|   -8.690175|    0.824001|    0.011995|
|         206|   -6.136815|   -8.692305|    0.824001|    0.011995|
|         207|   -6.137053|   -8.694533|    0.824001|    0.011995|
|         208|   -6.137081|   -8.696866|    0.824001|    0.011995|
|         209|   -6.136953|   -8.699308|    0.824001|    0.011995|
|         210|   -6.136734|   -8.701862|    0.824001|    0.011995|
|         211|   -6.136501|   -8.704527|    0.824002|    0.011995|
|         212|   -6.136334|   -8.707299|    0.824002|    0.011995|
|         213|   -6.136318|   -8.710174|    0.824002|    0.011995|
|         214|   -6.136541|   -8.713144|    0.824002|    0.011995|
|         215|   -6.137087|   -8.716201|    0.824002|    0.011995|
|         216|   -6.138038|   -8.719336|    0.824002|    0.011995|
|         217|   -6.139470|   -8.722541|    0.824002|    0.011995|
|         218|   -6.141454|   -8.725807|    0.824002|    0.011995|
|         219|   -6.144054|   -8.729127|    0.824002|    0.011995|
|         220|   -6.147324|   -8.732497|    0.824002|    0.011995|
|         221|   -6.151311|   -8.735916|    0.824002|    0.011995|
|         222|   -6.156053|   -8.739385|    0.824003|    0.011995|
|         223|   -6.161578|   -8.742909|    0.824003|    0.011995|
|         224|   -6.167905|   -8.746497|    0.824003|    0.011995|
|         225|   -6.175041|   -8.750162|    0.824003|    0.011995|
|         226|   -6.182985|   -8.753919|    0.824003|    0.011995|
|         227|   -6.191722|   -8.757789|    0.824003|    0.011995|
|         228|   -6.201226|   -8.761793|    0.824003|    0.011995|
|         229|   -6.211458|   -8.765957|    0.824003|    0.011995|
|         230|   -6.222363|   -8.770307|    0.824003|    0.011995|
|         231|   -6.233872|   -8.774870|    0.824003|    0.011995|
|         232|   -6.245900|   -8.779673|    0.824003|    0.011995|
|         233|   -6.258345|   -8.784743|    0.824003|    0.011996|
|         234|   -6.271085|   -8.790105|    0.824003|    0.011996|
|         235|   -6.283985|   -8.795784|    0.824003|    0.011996|
|         236|   -6.296891|   -8.801800|    0.824003|    0.011996|
|         237|   -6.309636|   -8.808170|    0.824003|    0.011996|
|         238|   -6.322045|   -8.814909|    0.824003|    0.011996|
|         239|   -6.333940|   -8.822027|    0.824003|    0.011996|
|         240|   -6.345144|   -8.829528|    0.824003|    0.011996|
|         241|   -6.355495|   -8.837414|    0.824003|    0.011996|
|         242|   -6.364854|   -8.845679|    0.824003|    0.011996|
|         243|   -6.373109|   -8.854315|    0.824003|    0.011996|
|         244|   -6.380188|   -8.863305|    0.824003|    0.011996|
|         245|   -6.386059|   -8.872629|    0.824002|    0.011996|
|         246|   -6.390735|   -8.882263|    0.824002|    0.011996|
|         247|   -6.394269|   -8.892175|    0.824002|    0.011996|
|         248|   -6.396749|   -8.902330|    0.824002|    0.011996|
|         249|   -6.398290|   -8.912692|    0.824002|    0.011996|
|         250|   -6.399029|   -8.923217|    0.824002|    0.011996|
|         251|   -6.399109|   -8.933864|    0.824002|    0.011996|
|         252|   -6.398680|   -8.944588|    0.824002|    0.011996|
|         253|   -6.397885|   -8.955346|    0.824002|    0.011996|
|         254|   -6.396860|   -8.966095|    0.824002|    0.011996|
|         255|   -6.395729|   -8.976796|    0.824002|    0.011996|
|         256|   -6.394601|   -8.987414|    0.824002|    0.011996|
|         257|   -6.393571|   -8.997917|    0.824002|    0.011996|
|         258|   -6.392723|   -9.008279|    0.824002|    0.011996|
|         259|   -6.392124|   -9.018475|    0.824002|    0.011996|
|         260|   -6.391832|   -9.028488|    0.824002|    0.011996|
|         261|   -6.391892|   -9.038303|    0.824002|    0.011996|
|         262|   -6.392341|   -9.047903|    0.824002|    0.011996|
|         263|   -6.393207|   -9.057274|    0.824002|    0.011996|
|         264|   -6.394513|   -9.066398|    0.824002|    0.011996|
|         265|   -6.396274|   -9.075253|    0.824002|    0.011996|
|         266|   -6.398499|   -9.083808|    0.824002|    0.011996|
|         267|   -6.401196|   -9.092027|    0.824002|    0.011996|
|         268|   -6.404367|   -9.099861|    0.824002|    0.011996|
|         269|   -6.408009|   -9.107252|    0.824002|    0.011996|
|         270|   -6.412120|   -9.114134|    0.824002|    0.011996|
|         271|   -6.416691|   -9.120432|    0.824001|    0.011996|
|         272|   -6.421712|   -9.126066|    0.824001|    0.011996|
|         273|   -6.427173|   -9.130958|    0.824001|    0.011996|
|         274|   -6.433056|   -9.135033|    0.824001|    0.011996|
|         275|   -6.439344|   -9.138227|    0.824001|    0.011996|
|         276|   -6.446016|   -9.140493|    0.824001|    0.011996|
|         277|   -6.453049|   -9.141805|    0.824001|    0.011996|
|         278|   -6.460415|   -9.142163|    0.824001|    0.011996|
|         279|   -6.468084|   -9.141597|    0.824001|    0.011996|
|         280|   -6.476021|   -9.140162|    0.824001|    0.011996|
|         281|   -6.484191|   -9.137939|    0.824001|    0.011996|
|         282|   -6.492551|   -9.135034|    0.824001|    0.011996|
|         283|   -6.501057|   -9.131567|    0.824001|    0.011996|
|         284|   -6.509662|   -9.127671|    0.824001|    0.011996|
|         285|   -6.518314|   -9.123484|    0.824001|    0.011996|
|         286|   -6.526962|   -9.119145|    0.824000|    0.011996|
|         287|   -6.535550|   -9.114786|    0.824000|    0.011996|
|         288|   -6.544023|   -9.110535|    0.824000|    0.011996|
|         289|   -6.552327|   -9.106508|    0.824000|    0.011996|
|         290|   -6.560409|   -9.102809|    0.824000|    0.011996|
|         291|   -6.568219|   -9.099532|    0.824000|    0.011996|
|         292|   -6.575712|   -9.096755|    0.824000|    0.011996|
|         293|   -6.582848|   -9.094546|    0.824000|    0.011996|
|         294|   -6.589593|   -9.092960|    0.824000|    0.011996|
|         295|   -6.595921|   -9.092040|    0.824000|    0.011996|
|         296|   -6.601814|   -9.091820|    0.824000|    0.011996|
|         297|   -6.607261|   -9.092322|    0.824000|    0.011996|
|         298|   -6.612260|   -9.093560|    0.824000|    0.011996|
|         299|   -6.616814|   -9.095539|    0.824000|    0.011996|
|         300|   -6.620933|   -9.098253|    0.824000|    0.011996|
|         301|   -6.624632|   -9.101692|    0.824000|    0.011996|
|         302|   -6.627930|   -9.105833|    0.824000|    0.011996|
|         303|   -6.630847|   -9.110647|    0.824000|    0.011996|
|         304|   -6.633404|   -9.116099|    0.824000|    0.011996|
|         305|   -6.635625|   -9.122143|    0.824000|    0.011996|
|         306|   -6.637530|   -9.128725|    0.824000|    0.011996|
|         307|   -6.639138|   -9.135788|    0.824000|    0.011995|
|         308|   -6.640468|   -9.143263|    0.824001|    0.011995|
|         309|   -6.641536|   -9.151077|    0.824001|    0.011995|
|         310|   -6.642356|   -9.159153|    0.824001|    0.011995|
|         311|   -6.642942|   -9.167408|    0.824001|    0.011995|
|         312|   -6.643304|   -9.175759|    0.824001|    0.011995|
|         313|   -6.643454|   -9.184122|    0.824001|    0.011995|
|         314|   -6.643403|   -9.192417|    0.824001|    0.011995|
|         315|   -6.643164|   -9.200569|    0.824001|    0.011995|
|         316|   -6.642748|   -9.208510|    0.824001|    0.011995|
|         317|   -6.642170|   -9.216183|    0.824001|    0.011995|
|         318|   -6.641445|   -9.223544|    0.824001|    0.011995|
|         319|   -6.640592|   -9.230563|    0.824001|    0.011995|
|         320|   -6.639629|   -9.237223|    0.824001|    0.011995|
|         321|   -6.638579|   -9.243523|    0.824001|    0.011995|
|         322|   -6.637465|   -9.249473|    0.824001|    0.011995|
|         323|   -6.636311|   -9.255097|    0.824001|    0.011995|
|         324|   -6.635143|   -9.260425|    0.824001|    0.011995|
|         325|   -6.633987|   -9.265495|    0.824002|    0.011995|
|         326|   -6.632872|   -9.270344|    0.824002|    0.011995|
|         327|   -6.631823|   -9.275013|    0.824002|    0.011995|
|         328|   -6.630867|   -9.279536|    0.824002|    0.011995|
|         329|   -6.630031|   -9.283940|    0.824002|    0.011995|
|         330|   -6.629340|   -9.288248|    0.824002|    0.011995|
|         331|   -6.628817|   -9.292468|    0.824002|    0.011995|
|         332|   -6.628485|   -9.296601|    0.824002|    0.011995|
|         333|   -6.628365|   -9.300634|    0.824002|    0.011995|
|         334|   -6.628475|   -9.304544|    0.824002|    0.011995|
|         335|   -6.628834|   -9.308299|    0.824002|    0.011995|
|         336|   -6.629456|   -9.311856|    0.824002|    0.011995|
|         337|   -6.630355|   -9.315167|    0.824002|    0.011995|
|         338|   -6.631543|   -9.318181|    0.824002|    0.011995|
|         339|   -6.633030|   -9.320844|    0.824002|    0.011995|
|         340|   -6.634824|   -9.323106|    0.824003|    0.011995|
|         341|   -6.636930|   -9.324924|    0.824003|    0.011995|
|         342|   -6.639354|   -9.326263|    0.824003|    0.011995|
|         343|   -6.642098|   -9.327101|    0.824003|    0.011995|
|         344|   -6.645162|   -9.327429|    0.824003|    0.011995|
|         345|   -6.648546|   -9.327255|    0.824003|    0.011995|
|         346|   -6.652246|   -9.326603|    0.824003|    0.011995|
|         347|   -6.656257|   -9.325511|    0.824003|    0.011995|
|         348|   -6.660573|   -9.324034|    0.824003|    0.011996|
|         349|   -6.665183|   -9.322233|    0.824003|    0.011996|
|         350|   -6.670076|   -9.320184|    0.824003|    0.011996|
|         351|   -6.675237|   -9.317965|    0.824003|    0.011996|
|         352|   -6.680649|   -9.315658|    0.824003|    0.011996|
|         353|   -6.686292|   -9.313346|    0.824003|    0.011996|
|         354|   -6.692141|   -9.311107|    0.824003|    0.011996|
|         355|   -6.698169|   -9.309018|    0.824003|    0.011996|
|         356|   -6.704347|   -9.307147|    0.824003|    0.011996|
|         357|   -6.710638|   -9.305557|    0.824003|    0.011996|
|         358|   -6.717005|   -9.304301|    0.824003|    0.011996|
|         359|   -6.723406|   -9.303426|    0.824003|    0.011996|
|         360|   -6.729794|   -9.302966|    0.824003|    0.011996|
|         361|   -6.736120|   -9.302948|    0.824003|    0.011996|
|         362|   -6.742333|   -9.303390|    0.824003|    0.011996|
|         363|   -6.748380|   -9.304300|    0.824003|    0.011996|
|         364|   -6.754205|   -9.305675|    0.824003|    0.011996|
|         365|   -6.759755|   -9.307505|    0.824003|    0.011996|
|         366|   -6.764976|   -9.309770|    0.824003|    0.011996|
|         367|   -6.769821|   -9.312439|    0.824003|    0.011996|
|         368|   -6.774244|   -9.315475|    0.824003|    0.011996|
|         369|   -6.778208|   -9.318830|    0.824003|    0.011996|
|         370|   -6.781683|   -9.322449|    0.824003|    0.011996|
|         371|   -6.784649|   -9.326267|    0.824003|    0.011996|
|         372|   -6.787095|   -9.330214|    0.824003|    0.011996|
|         373|   -6.789022|   -9.334215|    0.824003|    0.011996|
|         374|   -6.790442|   -9.338190|    0.824003|    0.011996|
|         375|   -6.791375|   -9.342057|    0.824003|    0.011996|
|         376|   -6.791855|   -9.345734|    0.824003|    0.011996|
|         377|   -6.791920|   -9.349142|    0.824003|    0.011996|
|         378|   -6.791619|   -9.352209|    0.824003|    0.011996|
|         379|   -6.791003|   -9.354870|    0.824002|    0.011996|
|         380|   -6.790128|   -9.357073|    0.824002|    0.011996|
|         381|   -6.789053|   -9.358778|    0.824002|    0.011996|
|         382|   -6.787837|   -9.359962|    0.824002|    0.011996|
|         383|   -6.786535|   -9.360617|    0.824002|    0.011996|
|         384|   -6.785205|   -9.360751|    0.824002|    0.011996|
|         385|   -6.783897|   -9.360388|    0.824002|    0.011996|
|         386|   -6.782661|   -9.359566|    0.824002|    0.011996|
|         387|   -6.781539|   -9.358332|    0.824002|    0.011996|
|         388|   -6.780571|   -9.356746|    0.824002|    0.011996|
|         389|   -6.779790|   -9.354870|    0.824002|    0.011996|
|         390|   -6.779226|   -9.352769|    0.824002|    0.011996|
|         391|   -6.778902|   -9.350511|    0.824002|    0.011996|
|         392|   -6.778837|   -9.348158|    0.824002|    0.011996|
|         393|   -6.779045|   -9.345769|    0.824002|    0.011996|
|         394|   -6.779537|   -9.343398|    0.824002|    0.011996|
|         395|   -6.780316|   -9.341091|    0.824002|    0.011996|
|         396|   -6.781386|   -9.338886|    0.824001|    0.011996|
|         397|   -6.782744|   -9.336813|    0.824001|    0.011996|
|         398|   -6.784384|   -9.334894|    0.824001|    0.011996|
|         399|   -6.786298|   -9.333141|    0.824001|    0.011996|
|         400|   -6.788476|   -9.331561|    0.824001|    0.011996|
|         401|   -6.790904|   -9.330151|    0.824001|    0.011996|
+-----------------------------------------------------------------------+
|Fixed CL Mode                           |Value                         |
+-----------------------------------------------------------------------+
|Current CL                              |0.824001                      |
|Target CL                               |0.824                         |
|Previous AOA                            |2.76627                       |
|Changed AoA by                          |-6.5863e-06                   |
+-----------------------------------------------------------------------+
+----------------------------------------------------------------+
|  Inner_Iter|    rms[Rho]|     rms[nu]|          CL|          CD|
+----------------------------------------------------------------+
|         402|   -5.374505|   -9.237753|    0.824001|    0.011996|
|         403|   -5.757778|   -9.278229|    0.824001|    0.011996|
|         404|   -5.997959|   -9.291406|    0.824001|    0.011996|
|         405|   -6.073645|   -9.298573|    0.824001|    0.011996|
|         406|   -6.124791|   -9.303350|    0.824001|    0.011996|
|         407|   -6.190992|   -9.306666|    0.824001|    0.011996|
|         408|   -6.271764|   -9.308928|    0.824001|    0.011996|
|         409|   -6.354228|   -9.310442|    0.824001|    0.011996|
|         410|   -6.423359|   -9.311420|    0.824001|    0.011996|
|         411|   -6.472938|   -9.311969|    0.824001|    0.011996|
|         412|   -6.505579|   -9.312172|    0.824001|    0.011996|
|         413|   -6.525134|   -9.312168|    0.824001|    0.011996|
|         414|   -6.534927|   -9.312116|    0.824001|    0.011996|
|         415|   -6.539628|   -9.312124|    0.824001|    0.011996|
|         416|   -6.544543|   -9.312221|    0.824001|    0.011996|
|         417|   -6.553311|   -9.312381|    0.824001|    0.011996|
|         418|   -6.566814|   -9.312590|    0.824001|    0.011996|
|         419|   -6.583627|   -9.312862|    0.824001|    0.011996|
|         420|   -6.601321|   -9.313228|    0.824001|    0.011996|
|         421|   -6.617961|   -9.313720|    0.824001|    0.011996|
|         422|   -6.633006|   -9.314348|    0.824001|    0.011996|
|         423|   -6.647117|   -9.315105|    0.824001|    0.011996|
|         424|   -6.661253|   -9.315975|    0.824001|    0.011996|
|         425|   -6.675886|   -9.316946|    0.824001|    0.011996|
|         426|   -6.690787|   -9.318016|    0.824001|    0.011996|
|         427|   -6.705259|   -9.319191|    0.824001|    0.011996|
|         428|   -6.718509|   -9.320483|    0.824001|    0.011996|
|         429|   -6.729918|   -9.321908|    0.824001|    0.011996|
|         430|   -6.739175|   -9.323481|    0.824001|    0.011996|
|         431|   -6.746310|   -9.325213|    0.824001|    0.011996|
|         432|   -6.751679|   -9.327107|    0.824001|    0.011996|
|         433|   -6.755905|   -9.329154|    0.824001|    0.011996|
|         434|   -6.759734|   -9.331335|    0.824001|    0.011996|
|         435|   -6.763869|   -9.333615|    0.824001|    0.011996|
|         436|   -6.768819|   -9.335949|    0.824001|    0.011996|
|         437|   -6.774815|   -9.338280|    0.824001|    0.011996|
|         438|   -6.781790|   -9.340545|    0.824001|    0.011996|
|         439|   -6.789410|   -9.342677|    0.824001|    0.011996|
|         440|   -6.797136|   -9.344609|    0.824001|    0.011996|
|         441|   -6.804330|   -9.346281|    0.824002|    0.011996|
|         442|   -6.810386|   -9.347634|    0.824002|    0.011996|
|         443|   -6.814879|   -9.348619|    0.824002|    0.011996|
|         444|   -6.817674|   -9.349197|    0.824002|    0.011996|
|         445|   -6.818949|   -9.349340|    0.824002|    0.011996|
|         446|   -6.819121|   -9.349030|    0.824002|    0.011996|
|         447|   -6.818713|   -9.348257|    0.824002|    0.011996|
|         448|   -6.818214|   -9.347023|    0.824002|    0.011996|
|         449|   -6.817979|   -9.345340|    0.824002|    0.011996|
|         450|   -6.818186|   -9.343230|    0.824002|    0.011996|
|         451|   -6.818851|   -9.340724|    0.824002|    0.011996|
|         452|   -6.819866|   -9.337865|    0.824002|    0.011996|
|         453|   -6.821061|   -9.334705|    0.824002|    0.011996|
|         454|   -6.822263|   -9.331303|    0.824002|    0.011996|
|         455|   -6.823341|   -9.327728|    0.824002|    0.011996|
|         456|   -6.824233|   -9.324055|    0.824002|    0.011996|
|         457|   -6.824949|   -9.320359|    0.824002|    0.011996|
|         458|   -6.825558|   -9.316721|    0.824002|    0.011996|
|         459|   -6.826164|   -9.313220|    0.824002|    0.011996|
|         460|   -6.826879|   -9.309936|    0.824002|    0.011996|
|         461|   -6.827805|   -9.306941|    0.824002|    0.011996|
|         462|   -6.829020|   -9.304304|    0.824002|    0.011996|
|         463|   -6.830574|   -9.302093|    0.824002|    0.011996|
|         464|   -6.832495|   -9.300364|    0.824002|    0.011996|
|         465|   -6.834793|   -9.299163|    0.824002|    0.011996|
|         466|   -6.837465|   -9.298531|    0.824002|    0.011996|
|         467|   -6.840506|   -9.298498|    0.824002|    0.011996|
|         468|   -6.843910|   -9.299086|    0.824002|    0.011996|
|         469|   -6.847673|   -9.300303|    0.824001|    0.011996|
|         470|   -6.851790|   -9.302148|    0.824001|    0.011996|
|         471|   -6.856257|   -9.304605|    0.824001|    0.011996|
|         472|   -6.861068|   -9.307648|    0.824001|    0.011996|
|         473|   -6.866213|   -9.311234|    0.824001|    0.011996|
|         474|   -6.871675|   -9.315306|    0.824001|    0.011996|
|         475|   -6.877434|   -9.319795|    0.824001|    0.011996|
|         476|   -6.883463|   -9.324614|    0.824001|    0.011996|
|         477|   -6.889729|   -9.329666|    0.824001|    0.011996|
|         478|   -6.896194|   -9.334840|    0.824001|    0.011996|
|         479|   -6.902816|   -9.340019|    0.824001|    0.011996|
|         480|   -6.909548|   -9.345079|    0.824001|    0.011996|
|         481|   -6.916340|   -9.349898|    0.824001|    0.011996|
|         482|   -6.923135|   -9.354357|    0.824001|    0.011996|
|         483|   -6.929877|   -9.358353|    0.824001|    0.011996|
|         484|   -6.936505|   -9.361800|    0.824001|    0.011996|
|         485|   -6.942957|   -9.364634|    0.824001|    0.011996|
|         486|   -6.949171|   -9.366823|    0.824001|    0.011996|
|         487|   -6.955085|   -9.368363|    0.824001|    0.011996|
|         488|   -6.960640|   -9.369282|    0.824001|    0.011996|
|         489|   -6.965782|   -9.369635|    0.824001|    0.011996|
|         490|   -6.970463|   -9.369502|    0.824001|    0.011996|
|         491|   -6.974641|   -9.368982|    0.824001|    0.011996|
|         492|   -6.978286|   -9.368186|    0.824001|    0.011996|
|         493|   -6.981374|   -9.367231|    0.824001|    0.011996|
|         494|   -6.983895|   -9.366234|    0.824001|    0.011996|
|         495|   -6.985847|   -9.365309|    0.824001|    0.011996|
|         496|   -6.987241|   -9.364559|    0.824001|    0.011996|
|         497|   -6.988096|   -9.364078|    0.824001|    0.011996|
|         498|   -6.988442|   -9.363945|    0.824001|    0.011996|
|         499|   -6.988317|   -9.364224|    0.824001|    0.011996|
|         500|   -6.987763|   -9.364966|    0.824001|    0.011996|
|         501|   -6.986829|   -9.366206|    0.824001|    0.011995|
+-----------------------------------------------------------------------+
|Fixed CL Mode                           |Value                         |
+-----------------------------------------------------------------------+
|Current CL                              |0.824001                      |
|Target CL                               |0.824                         |
|Previous AOA                            |2.76626                       |
|Changed AoA by                          |-4.26908e-06                  |
+-----------------------------------------------------------------------+
+----------------------------------------------------------------+
|  Inner_Iter|    rms[Rho]|     rms[nu]|          CL|          CD|
+----------------------------------------------------------------+
|         502|   -5.562963|   -9.318886|    0.824001|    0.011995|
|         503|   -5.947133|   -9.345062|    0.824001|    0.011995|
|         504|   -6.188981|   -9.355347|    0.824001|    0.011995|
|         505|   -6.264370|   -9.362725|    0.824001|    0.011995|
|         506|   -6.314277|   -9.369262|    0.824001|    0.011995|
|         507|   -6.378908|   -9.375427|    0.824001|    0.011995|
|         508|   -6.457553|   -9.381375|    0.824001|    0.011995|
|         509|   -6.536993|   -9.387202|    0.824001|    0.011995|
|         510|   -6.602291|   -9.392961|    0.824001|    0.011995|
|         511|   -6.647834|   -9.398642|    0.824001|    0.011995|
|         512|   -6.676853|   -9.404222|    0.824001|    0.011995|
|         513|   -6.693608|   -9.409710|    0.824001|    0.011995|
|         514|   -6.701536|   -9.415140|    0.824001|    0.011995|
|         515|   -6.704989|   -9.420507|    0.824001|    0.011995|
|         516|   -6.708702|   -9.425759|    0.824001|    0.011995|
|         517|   -6.715843|   -9.430810|    0.824001|    0.011995|
|         518|   -6.727098|   -9.435580|    0.824001|    0.011995|
|         519|   -6.741125|   -9.440008|    0.824001|    0.011995|
|         520|   -6.755794|   -9.444049|    0.824001|    0.011995|
|         521|   -6.769507|   -9.447661|    0.824001|    0.011995|
|         522|   -6.781920|   -9.450795|    0.824001|    0.011995|
|         523|   -6.793680|   -9.453394|    0.824001|    0.011995|
|         524|   -6.805624|   -9.455406|    0.824001|    0.011995|
|         525|   -6.818140|   -9.456798|    0.824001|    0.011995|
|         526|   -6.831018|   -9.457563|    0.824001|    0.011995|
|         527|   -6.843666|   -9.457719|    0.824001|    0.011995|
|         528|   -6.855424|   -9.457308|    0.824001|    0.011995|
|         529|   -6.865789|   -9.456391|    0.824001|    0.011995|
|         530|   -6.874512|   -9.455046|    0.824001|    0.011995|
|         531|   -6.881623|   -9.453354|    0.824001|    0.011995|
|         532|   -6.887426|   -9.451400|    0.824001|    0.011995|
|         533|   -6.892442|   -9.449267|    0.824001|    0.011995|
|         534|   -6.897308|   -9.447025|    0.824001|    0.011995|
|         535|   -6.902634|   -9.444737|    0.824001|    0.011995|
|         536|   -6.908884|   -9.442456|    0.824001|    0.011995|
|         537|   -6.916297|   -9.440225|    0.824001|    0.011995|
|         538|   -6.924867|   -9.438078|    0.824001|    0.011995|
|         539|   -6.934358|   -9.436044|    0.824001|    0.011995|
|         540|   -6.944349|   -9.434145|    0.824001|    0.011995|
|         541|   -6.954308|   -9.432403|    0.824001|    0.011995|
|         542|   -6.963694|   -9.430836|    0.824001|    0.011995|
|         543|   -6.972079|   -9.429460|    0.824001|    0.011995|
|         544|   -6.979243|   -9.428287|    0.824001|    0.011995|
|         545|   -6.985224|   -9.427325|    0.824001|    0.011995|
|         546|   -6.990279|   -9.426579|    0.824001|    0.011995|
|         547|   -6.994792|   -9.426048|    0.824001|    0.011995|
|         548|   -6.999149|   -9.425726|    0.824001|    0.011995|
|         549|   -7.003647|   -9.425602|    0.824001|    0.011995|
|         550|   -7.008428|   -9.425658|    0.824001|    0.011995|
|         551|   -7.013482|   -9.425870|    0.824001|    0.011995|
|         552|   -7.018664|   -9.426211|    0.824001|    0.011995|
|         553|   -7.023755|   -9.426649|    0.824001|    0.011995|
|         554|   -7.028518|   -9.427148|    0.824001|    0.011995|
|         555|   -7.032754|   -9.427670|    0.824001|    0.011995|
|         556|   -7.036338|   -9.428178|    0.824001|    0.011996|
|         557|   -7.039233|   -9.428633|    0.824001|    0.011996|
|         558|   -7.041482|   -9.429001|    0.824001|    0.011996|
|         559|   -7.043180|   -9.429248|    0.824001|    0.011996|
|         560|   -7.044448|   -9.429347|    0.824001|    0.011996|
|         561|   -7.045402|   -9.429280|    0.824001|    0.011996|
|         562|   -7.046142|   -9.429037|    0.824001|    0.011996|
|         563|   -7.046742|   -9.428611|    0.824001|    0.011996|
|         564|   -7.047250|   -9.428009|    0.824000|    0.011996|
|         565|   -7.047701|   -9.427245|    0.824000|    0.011996|
|         566|   -7.048118|   -9.426345|    0.824000|    0.011996|
|         567|   -7.048523|   -9.425340|    0.824000|    0.011996|
|         568|   -7.048942|   -9.424269|    0.824000|    0.011996|
|         569|   -7.049404|   -9.423176|    0.824000|    0.011996|
|         570|   -7.049941|   -9.422107|    0.824000|    0.011996|
|         571|   -7.050587|   -9.421110|    0.824000|    0.011996|
|         572|   -7.051375|   -9.420232|    0.824000|    0.011996|
|         573|   -7.052337|   -9.419517|    0.824000|    0.011996|
|         574|   -7.053498|   -9.419003|    0.824000|    0.011996|
|         575|   -7.054883|   -9.418725|    0.824000|    0.011996|
|         576|   -7.056510|   -9.418707|    0.824000|    0.011996|
|         577|   -7.058398|   -9.418969|    0.824000|    0.011996|
|         578|   -7.060560|   -9.419517|    0.824000|    0.011996|
|         579|   -7.063007|   -9.420353|    0.824000|    0.011996|
|         580|   -7.065751|   -9.421466|    0.824000|    0.011996|
|         581|   -7.068799|   -9.422839|    0.824000|    0.011996|
|         582|   -7.072158|   -9.424444|    0.824000|    0.011996|
|         583|   -7.075833|   -9.426248|    0.824000|    0.011996|
|         584|   -7.079826|   -9.428212|    0.824000|    0.011996|
|         585|   -7.084138|   -9.430291|    0.824000|    0.011996|
|         586|   -7.088765|   -9.432437|    0.824000|    0.011996|
|         587|   -7.093703|   -9.434605|    0.824000|    0.011996|
|         588|   -7.098945|   -9.436748|    0.824000|    0.011996|
|         589|   -7.104480|   -9.438825|    0.824000|    0.011996|
|         590|   -7.110295|   -9.440800|    0.824000|    0.011996|
|         591|   -7.116374|   -9.442645|    0.824000|    0.011996|
|         592|   -7.122696|   -9.444341|    0.824000|    0.011996|
|         593|   -7.129237|   -9.445879|    0.824000|    0.011996|
|         594|   -7.135970|   -9.447260|    0.824000|    0.011996|
|         595|   -7.142863|   -9.448495|    0.824000|    0.011996|
|         596|   -7.149881|   -9.449605|    0.824000|    0.011996|
|         597|   -7.156983|   -9.450615|    0.824000|    0.011996|
|         598|   -7.164124|   -9.451559|    0.824000|    0.011996|
|         599|   -7.171256|   -9.452473|    0.824000|    0.011996|
|         600|   -7.178327|   -9.453393|    0.824000|    0.011996|
|         601|   -7.185284|   -9.454356|    0.824000|    0.011996|
|         602|   -7.192067|   -9.455397|    0.824000|    0.011996|
|         603|   -7.198621|   -9.456546|    0.824000|    0.011996|
|         604|   -7.204888|   -9.457827|    0.824000|    0.011996|
|         605|   -7.210811|   -9.459259|    0.824000|    0.011996|
|         606|   -7.216338|   -9.460856|    0.824000|    0.011996|
|         607|   -7.221422|   -9.462624|    0.824000|    0.011996|
|         608|   -7.226021|   -9.464564|    0.824000|    0.011996|
|         609|   -7.230103|   -9.466670|    0.824000|    0.011996|
|         610|   -7.233644|   -9.468932|    0.824000|    0.011996|
|         611|   -7.236630|   -9.471336|    0.824000|    0.011996|
|         612|   -7.239060|   -9.473867|    0.824000|    0.011996|
|         613|   -7.240941|   -9.476505|    0.824000|    0.011996|
|         614|   -7.242294|   -9.479232|    0.824000|    0.011996|
|         615|   -7.243146|   -9.482030|    0.824000|    0.011996|
|         616|   -7.243537|   -9.484881|    0.824000|    0.011996|
|         617|   -7.243512|   -9.487773|    0.824000|    0.011996|
|         618|   -7.243123|   -9.490694|    0.824000|    0.011995|
|         619|   -7.242424|   -9.493635|    0.824000|    0.011995|
|         620|   -7.241474|   -9.496592|    0.824000|    0.011995|
|         621|   -7.240333|   -9.499565|    0.824000|    0.011995|
|         622|   -7.239060|   -9.502554|    0.824000|    0.011995|
|         623|   -7.237713|   -9.505565|    0.824000|    0.011995|
|         624|   -7.236346|   -9.508604|    0.824000|    0.011995|
|         625|   -7.235013|   -9.511677|    0.824000|    0.011995|
|         626|   -7.233763|   -9.514793|    0.824000|    0.011995|
|         627|   -7.232641|   -9.517957|    0.824000|    0.011995|
|         628|   -7.231688|   -9.521175|    0.824000|    0.011995|
|         629|   -7.230941|   -9.524450|    0.824000|    0.011995|
|         630|   -7.230434|   -9.527782|    0.824000|    0.011995|
|         631|   -7.230196|   -9.531167|    0.824000|    0.011995|
|         632|   -7.230253|   -9.534600|    0.824000|    0.011995|
|         633|   -7.230627|   -9.538071|    0.824000|    0.011995|
|         634|   -7.231336|   -9.541567|    0.824000|    0.011995|
|         635|   -7.232398|   -9.545074|    0.824000|    0.011995|
|         636|   -7.233825|   -9.548575|    0.824000|    0.011995|
|         637|   -7.235626|   -9.552052|    0.824000|    0.011995|
|         638|   -7.237811|   -9.555488|    0.824000|    0.011995|
|         639|   -7.240384|   -9.558867|    0.824000|    0.011995|
|         640|   -7.243349|   -9.562175|    0.824000|    0.011995|
|         641|   -7.246706|   -9.565401|    0.824000|    0.011995|
|         642|   -7.250455|   -9.568538|    0.824000|    0.011995|
|         643|   -7.254592|   -9.571584|    0.824000|    0.011995|
|         644|   -7.259113|   -9.574542|    0.824000|    0.011995|
|         645|   -7.264010|   -9.577422|    0.824000|    0.011995|
|         646|   -7.269274|   -9.580235|    0.824000|    0.011995|
|         647|   -7.274894|   -9.583000|    0.824000|    0.011995|
|         648|   -7.280856|   -9.585738|    0.824000|    0.011995|
|         649|   -7.287146|   -9.588474|    0.824000|    0.011995|
|         650|   -7.293746|   -9.591232|    0.824000|    0.011995|
|         651|   -7.300634|   -9.594039|    0.824000|    0.011995|
|         652|   -7.307790|   -9.596919|    0.824000|    0.011995|
|         653|   -7.315186|   -9.599894|    0.824000|    0.011995|
|         654|   -7.322796|   -9.602983|    0.824000|    0.011995|
|         655|   -7.330587|   -9.606201|    0.824000|    0.011995|
|         656|   -7.338526|   -9.609557|    0.824000|    0.011995|
|         657|   -7.346576|   -9.613055|    0.824000|    0.011995|
|         658|   -7.354697|   -9.616691|    0.824000|    0.011995|
|         659|   -7.362845|   -9.620456|    0.824000|    0.011995|
|         660|   -7.370976|   -9.624337|    0.824000|    0.011995|
|         661|   -7.379040|   -9.628311|    0.824000|    0.011995|
|         662|   -7.386989|   -9.632355|    0.824000|    0.011995|
|         663|   -7.394770|   -9.636439|    0.824000|    0.011995|
|         664|   -7.402333|   -9.640533|    0.824000|    0.011995|
|         665|   -7.409625|   -9.644603|    0.824000|    0.011996|
|         666|   -7.416598|   -9.648619|    0.824000|    0.011996|
|         667|   -7.423203|   -9.652550|    0.824000|    0.011996|
|         668|   -7.429399|   -9.656372|    0.824000|    0.011996|
|         669|   -7.435148|   -9.660063|    0.824000|    0.011996|
|         670|   -7.440418|   -9.663608|    0.824000|    0.011996|
|         671|   -7.445187|   -9.667001|    0.824000|    0.011996|
|         672|   -7.449440|   -9.670241|    0.824000|    0.011996|
|         673|   -7.453172|   -9.673334|    0.824000|    0.011996|
|         674|   -7.456385|   -9.676297|    0.824000|    0.011996|
|         675|   -7.459094|   -9.679147|    0.824000|    0.011996|
|         676|   -7.461321|   -9.681911|    0.824000|    0.011996|
|         677|   -7.463097|   -9.684617|    0.824000|    0.011996|
|         678|   -7.464460|   -9.687295|    0.824000|    0.011996|
|         679|   -7.465454|   -9.689975|    0.824000|    0.011996|
|         680|   -7.466129|   -9.692686|    0.824000|    0.011996|
|         681|   -7.466537|   -9.695454|    0.824000|    0.011996|
|         682|   -7.466733|   -9.698301|    0.824000|    0.011996|
|         683|   -7.466775|   -9.701244|    0.824000|    0.011996|
|         684|   -7.466717|   -9.704295|    0.824000|    0.011996|
|         685|   -7.466617|   -9.707456|    0.824000|    0.011996|
|         686|   -7.466527|   -9.710727|    0.824000|    0.011996|
|         687|   -7.466500|   -9.714099|    0.824000|    0.011996|
|         688|   -7.466584|   -9.717557|    0.824000|    0.011996|
|         689|   -7.466825|   -9.721081|    0.824000|    0.011996|
|         690|   -7.467266|   -9.724647|    0.824000|    0.011996|
|         691|   -7.467946|   -9.728224|    0.824000|    0.011996|
|         692|   -7.468900|   -9.731782|    0.824000|    0.011996|
|         693|   -7.470161|   -9.735288|    0.824000|    0.011996|
|         694|   -7.471758|   -9.738709|    0.824000|    0.011996|
|         695|   -7.473717|   -9.742014|    0.824000|    0.011996|
|         696|   -7.476058|   -9.745173|    0.824000|    0.011996|
|         697|   -7.478803|   -9.748160|    0.824000|    0.011996|
|         698|   -7.481965|   -9.750953|    0.824000|    0.011996|
|         699|   -7.485558|   -9.753537|    0.824000|    0.011996|
|         700|   -7.489590|   -9.755898|    0.824000|    0.011996|
|         701|   -7.494067|   -9.758030|    0.824000|    0.011996|
|         702|   -7.498992|   -9.759932|    0.824000|    0.011996|
|         703|   -7.504364|   -9.761607|    0.824000|    0.011996|
|         704|   -7.510176|   -9.763061|    0.824000|    0.011996|
|         705|   -7.516420|   -9.764304|    0.824000|    0.011996|
|         706|   -7.523083|   -9.765350|    0.824000|    0.011996|
|         707|   -7.530145|   -9.766212|    0.824000|    0.011996|
|         708|   -7.537585|   -9.766907|    0.824000|    0.011996|
|         709|   -7.545374|   -9.767451|    0.824000|    0.011996|
|         710|   -7.553477|   -9.767862|    0.824000|    0.011996|
|         711|   -7.561855|   -9.768156|    0.824000|    0.011996|
|         712|   -7.570462|   -9.768351|    0.824000|    0.011996|
|         713|   -7.579244|   -9.768464|    0.824000|    0.011996|
|         714|   -7.588145|   -9.768511|    0.824000|    0.011996|
|         715|   -7.597098|   -9.768509|    0.824000|    0.011996|
|         716|   -7.606035|   -9.768475|    0.824000|    0.011996|
|         717|   -7.614879|   -9.768425|    0.824000|    0.011996|
|         718|   -7.623554|   -9.768376|    0.824000|    0.011996|
|         719|   -7.631979|   -9.768344|    0.824000|    0.011996|
|         720|   -7.640074|   -9.768345|    0.824000|    0.011996|
|         721|   -7.647763|   -9.768395|    0.824000|    0.011996|
|         722|   -7.654973|   -9.768510|    0.824000|    0.011996|
|         723|   -7.661640|   -9.768703|    0.824000|    0.011996|
|         724|   -7.667711|   -9.768989|    0.824000|    0.011996|
|         725|   -7.673144|   -9.769379|    0.824000|    0.011996|
|         726|   -7.677914|   -9.769885|    0.824000|    0.011996|
|         727|   -7.682011|   -9.770515|    0.824000|    0.011996|
|         728|   -7.685439|   -9.771279|    0.824000|    0.011996|
|         729|   -7.688221|   -9.772181|    0.824000|    0.011996|
|         730|   -7.690394|   -9.773227|    0.824000|    0.011996|
|         731|   -7.692005|   -9.774419|    0.824000|    0.011996|
|         732|   -7.693114|   -9.775760|    0.824000|    0.011996|
|         733|   -7.693788|   -9.777251|    0.824000|    0.011996|
|         734|   -7.694098|   -9.778891|    0.824000|    0.011996|
|         735|   -7.694118|   -9.780680|    0.824000|    0.011996|
|         736|   -7.693922|   -9.782618|    0.824000|    0.011996|
|         737|   -7.693580|   -9.784704|    0.824000|    0.011996|
|         738|   -7.693160|   -9.786938|    0.824000|    0.011996|
|         739|   -7.692724|   -9.789321|    0.824000|    0.011996|
|         740|   -7.692328|   -9.791854|    0.824000|    0.011995|
|         741|   -7.692020|   -9.794540|    0.824000|    0.011995|
|         742|   -7.691844|   -9.797382|    0.824000|    0.011995|
|         743|   -7.691835|   -9.800384|    0.824000|    0.011995|
|         744|   -7.692020|   -9.803551|    0.824000|    0.011995|
|         745|   -7.692421|   -9.806889|    0.824000|    0.011995|
|         746|   -7.693053|   -9.810404|    0.824000|    0.011995|
|         747|   -7.693925|   -9.814102|    0.824000|    0.011995|
|         748|   -7.695039|   -9.817989|    0.824000|    0.011995|
|         749|   -7.696392|   -9.822071|    0.824000|    0.011995|
|         750|   -7.697977|   -9.826351|    0.824000|    0.011995|
|         751|   -7.699780|   -9.830834|    0.824000|    0.011995|
|         752|   -7.701786|   -9.835520|    0.824000|    0.011995|
|         753|   -7.703971|   -9.840410|    0.824000|    0.011995|
|         754|   -7.706312|   -9.845501|    0.824000|    0.011995|
|         755|   -7.708780|   -9.850789|    0.824000|    0.011995|
|         756|   -7.711345|   -9.856268|    0.824000|    0.011995|
|         757|   -7.713973|   -9.861927|    0.824000|    0.011995|
|         758|   -7.716628|   -9.867755|    0.824000|    0.011995|
|         759|   -7.719274|   -9.873738|    0.824000|    0.011995|
|         760|   -7.721874|   -9.879859|    0.824000|    0.011995|
|         761|   -7.724390|   -9.886099|    0.824000|    0.011995|
|         762|   -7.726785|   -9.892438|    0.824000|    0.011995|
|         763|   -7.729024|   -9.898853|    0.824000|    0.011995|
|         764|   -7.731073|   -9.905321|    0.824000|    0.011995|
|         765|   -7.732900|   -9.911817|    0.824000|    0.011995|
|         766|   -7.734479|   -9.918316|    0.824000|    0.011995|
|         767|   -7.735785|   -9.924793|    0.824000|    0.011995|
|         768|   -7.736799|   -9.931223|    0.824000|    0.011995|
|         769|   -7.737506|   -9.937582|    0.824000|    0.011995|
|         770|   -7.737897|   -9.943848|    0.824000|    0.011995|
|         771|   -7.737967|   -9.949999|    0.824000|    0.011995|
|         772|   -7.737718|   -9.956017|    0.824000|    0.011995|
|         773|   -7.737157|   -9.961885|    0.824000|    0.011995|
|         774|   -7.736294|   -9.967590|    0.824000|    0.011996|
|         775|   -7.735146|   -9.973121|    0.824000|    0.011996|
|         776|   -7.733732|   -9.978470|    0.824000|    0.011996|
|         777|   -7.732077|   -9.983632|    0.824000|    0.011996|
|         778|   -7.730207|   -9.988606|    0.824000|    0.011996|
|         779|   -7.728152|   -9.993393|    0.824000|    0.011996|
|         780|   -7.725942|   -9.997996|    0.824000|    0.011996|
|         781|   -7.723608|  -10.002423|    0.824000|    0.011996|
|         782|   -7.721185|  -10.006682|    0.824000|    0.011996|
|         783|   -7.718703|  -10.010783|    0.824000|    0.011996|
|         784|   -7.716195|  -10.014738|    0.824000|    0.011996|
|         785|   -7.713693|  -10.018561|    0.824000|    0.011996|
|         786|   -7.711224|  -10.022266|    0.824000|    0.011996|
|         787|   -7.708818|  -10.025868|    0.824000|    0.011996|
|         788|   -7.706499|  -10.029382|    0.824000|    0.011996|
|         789|   -7.704292|  -10.032822|    0.824000|    0.011996|
|         790|   -7.702216|  -10.036203|    0.824000|    0.011996|
|         791|   -7.700290|  -10.039541|    0.824000|    0.011996|
|         792|   -7.698528|  -10.042848|    0.824000|    0.011996|
|         793|   -7.696943|  -10.046137|    0.824000|    0.011996|
|         794|   -7.695543|  -10.049421|    0.824000|    0.011996|
|         795|   -7.694334|  -10.052711|    0.824000|    0.011996|
|         796|   -7.693317|  -10.056017|    0.824000|    0.011996|
|         797|   -7.692491|  -10.059348|    0.824000|    0.011996|
|         798|   -7.691851|  -10.062712|    0.824000|    0.011996|
|         799|   -7.691388|  -10.066116|    0.824000|    0.011996|
|         800|   -7.691090|  -10.069567|    0.824000|    0.011996|
|         801|   -7.690942|  -10.073068|    0.824000|    0.011996|
|         802|   -7.690925|  -10.076625|    0.824000|    0.011996|
|         803|   -7.691017|  -10.080239|    0.824000|    0.011996|
|         804|   -7.691193|  -10.083913|    0.824000|    0.011996|
|         805|   -7.691427|  -10.087647|    0.824000|    0.011996|
|         806|   -7.691690|  -10.091441|    0.824000|    0.011996|
|         807|   -7.691950|  -10.095292|    0.824000|    0.011996|
|         808|   -7.692177|  -10.099199|    0.824000|    0.011996|
|         809|   -7.692337|  -10.103155|    0.824000|    0.011996|
|         810|   -7.692401|  -10.107156|    0.824000|    0.011996|
|         811|   -7.692337|  -10.111195|    0.824000|    0.011996|
|         812|   -7.692119|  -10.115262|    0.824000|    0.011996|
|         813|   -7.691720|  -10.119348|    0.824000|    0.011996|
|         814|   -7.691121|  -10.123440|    0.824000|    0.011996|
|         815|   -7.690304|  -10.127526|    0.824000|    0.011996|
|         816|   -7.689257|  -10.131589|    0.824000|    0.011996|
|         817|   -7.687976|  -10.135613|    0.824000|    0.011996|
|         818|   -7.686458|  -10.139580|    0.824000|    0.011996|
|         819|   -7.684710|  -10.143470|    0.824000|    0.011996|
|         820|   -7.682742|  -10.147263|    0.824000|    0.011996|
|         821|   -7.680572|  -10.150938|    0.824000|    0.011996|
|         822|   -7.678219|  -10.154473|    0.824000|    0.011996|
|         823|   -7.675711|  -10.157847|    0.824000|    0.011996|
|         824|   -7.673075|  -10.161039|    0.824000|    0.011996|
|         825|   -7.670344|  -10.164028|    0.824000|    0.011996|
|         826|   -7.667551|  -10.166797|    0.824000|    0.011996|
|         827|   -7.664731|  -10.169330|    0.824000|    0.011996|
|         828|   -7.661920|  -10.171612|    0.824000|    0.011996|
|         829|   -7.659152|  -10.173636|    0.824000|    0.011996|
|         830|   -7.656461|  -10.175393|    0.824000|    0.011996|
|         831|   -7.653881|  -10.176882|    0.824000|    0.011996|
|         832|   -7.651442|  -10.178105|    0.824000|    0.011996|
|         833|   -7.649171|  -10.179069|    0.824000|    0.011996|
|         834|   -7.647097|  -10.179784|    0.824000|    0.011996|
|         835|   -7.645240|  -10.180266|    0.824000|    0.011996|
|         836|   -7.643623|  -10.180534|    0.824000|    0.011996|
|         837|   -7.642261|  -10.180611|    0.824000|    0.011996|
|         838|   -7.641169|  -10.180524|    0.824000|    0.011996|
|         839|   -7.640359|  -10.180301|    0.824000|    0.011996|
|         840|   -7.639838|  -10.179973|    0.824000|    0.011996|
|         841|   -7.639612|  -10.179573|    0.824000|    0.011996|
|         842|   -7.639681|  -10.179134|    0.824000|    0.011996|
|         843|   -7.640045|  -10.178691|    0.824000|    0.011996|
|         844|   -7.640700|  -10.178277|    0.824000|    0.011996|
|         845|   -7.641638|  -10.177925|    0.824000|    0.011996|
|         846|   -7.642850|  -10.177668|    0.824000|    0.011996|
|         847|   -7.644320|  -10.177538|    0.824000|    0.011996|
|         848|   -7.646035|  -10.177563|    0.824000|    0.011996|
|         849|   -7.647975|  -10.177771|    0.824000|    0.011996|
|         850|   -7.650118|  -10.178189|    0.824000|    0.011996|
|         851|   -7.652439|  -10.178838|    0.824000|    0.011996|
|         852|   -7.654913|  -10.179742|    0.824000|    0.011996|
|         853|   -7.657509|  -10.180919|    0.824000|    0.011996|
|         854|   -7.660197|  -10.182386|    0.824000|    0.011996|
|         855|   -7.662942|  -10.184156|    0.824000|    0.011996|
|         856|   -7.665710|  -10.186241|    0.824000|    0.011996|
|         857|   -7.668464|  -10.188650|    0.824000|    0.011996|
|         858|   -7.671169|  -10.191391|    0.824000|    0.011996|
|         859|   -7.673787|  -10.194465|    0.824000|    0.011996|
|         860|   -7.676281|  -10.197876|    0.824000|    0.011996|
|         861|   -7.678616|  -10.201619|    0.824000|    0.011996|
|         862|   -7.680759|  -10.205692|    0.824000|    0.011996|
|         863|   -7.682678|  -10.210086|    0.824000|    0.011996|
|         864|   -7.684346|  -10.214789|    0.824000|    0.011996|
|         865|   -7.685739|  -10.219788|    0.824000|    0.011996|
|         866|   -7.686837|  -10.225065|    0.824000|    0.011996|
|         867|   -7.687627|  -10.230598|    0.824000|    0.011996|
|         868|   -7.688098|  -10.236362|    0.824000|    0.011996|
|         869|   -7.688247|  -10.242327|    0.824000|    0.011996|
|         870|   -7.688077|  -10.248462|    0.824000|    0.011996|
|         871|   -7.687595|  -10.254729|    0.824000|    0.011996|
|         872|   -7.686815|  -10.261088|    0.824000|    0.011996|
|         873|   -7.685754|  -10.267496|    0.824000|    0.011996|
|         874|   -7.684434|  -10.273905|    0.824000|    0.011996|
|         875|   -7.682882|  -10.280266|    0.824000|    0.011996|
|         876|   -7.681126|  -10.286527|    0.824000|    0.011996|
|         877|   -7.679200|  -10.292638|    0.824000|    0.011996|
|         878|   -7.677135|  -10.298544|    0.824000|    0.011996|
|         879|   -7.674966|  -10.304196|    0.824000|    0.011996|
|         880|   -7.672729|  -10.309544|    0.824000|    0.011996|
|         881|   -7.670459|  -10.314544|    0.824000|    0.011996|
|         882|   -7.668189|  -10.319156|    0.824000|    0.011996|
|         883|   -7.665953|  -10.323348|    0.824000|    0.011996|
|         884|   -7.663783|  -10.327093|    0.824000|    0.011996|
|         885|   -7.661710|  -10.330375|    0.824000|    0.011996|
|         886|   -7.659761|  -10.333187|    0.824000|    0.011996|
|         887|   -7.657965|  -10.335529|    0.824000|    0.011996|
|         888|   -7.656344|  -10.337413|    0.824000|    0.011996|
|         889|   -7.654922|  -10.338859|    0.824000|    0.011996|
|         890|   -7.653720|  -10.339894|    0.824000|    0.011996|
|         891|   -7.652754|  -10.340553|    0.824000|    0.011996|
|         892|   -7.652041|  -10.340877|    0.824000|    0.011996|
|         893|   -7.651595|  -10.340909|    0.824000|    0.011996|
|         894|   -7.651427|  -10.340697|    0.824000|    0.011996|
|         895|   -7.651547|  -10.340291|    0.824000|    0.011996|
|         896|   -7.651963|  -10.339741|    0.824000|    0.011996|
|         897|   -7.652680|  -10.339096|    0.824000|    0.011996|
|         898|   -7.653701|  -10.338402|    0.824000|    0.011996|
|         899|   -7.655027|  -10.337707|    0.824000|    0.011996|
|         900|   -7.656658|  -10.337051|    0.824000|    0.011996|
|         901|   -7.658591|  -10.336474|    0.824000|    0.011996|
|         902|   -7.660821|  -10.336013|    0.824000|    0.011996|
|         903|   -7.663339|  -10.335698|    0.824000|    0.011996|
|         904|   -7.666137|  -10.335559|    0.824000|    0.011996|
|         905|   -7.669202|  -10.335620|    0.824000|    0.011996|
|         906|   -7.672519|  -10.335902|    0.824000|    0.011996|
|         907|   -7.676071|  -10.336423|    0.824000|    0.011996|
|         908|   -7.679838|  -10.337197|    0.824000|    0.011996|
|         909|   -7.683796|  -10.338236|    0.824000|    0.011996|
|         910|   -7.687921|  -10.339547|    0.824000|    0.011996|
|         911|   -7.692183|  -10.341135|    0.824000|    0.011996|
|         912|   -7.696551|  -10.343003|    0.824000|    0.011996|
|         913|   -7.700991|  -10.345150|    0.824000|    0.011996|
|         914|   -7.705467|  -10.347574|    0.824000|    0.011996|
|         915|   -7.709938|  -10.350267|    0.824000|    0.011996|
|         916|   -7.714365|  -10.353223|    0.824000|    0.011996|
|         917|   -7.718705|  -10.356429|    0.824000|    0.011996|
|         918|   -7.722914|  -10.359872|    0.824000|    0.011996|
|         919|   -7.726949|  -10.363535|    0.824000|    0.011996|
|         920|   -7.730768|  -10.367400|    0.824000|    0.011996|
|         921|   -7.734329|  -10.371444|    0.824000|    0.011996|
|         922|   -7.737593|  -10.375643|    0.824000|    0.011996|
|         923|   -7.740526|  -10.379967|    0.824000|    0.011996|
|         924|   -7.743097|  -10.384388|    0.824000|    0.011996|
|         925|   -7.745282|  -10.388870|    0.824000|    0.011996|
|         926|   -7.747062|  -10.393378|    0.824000|    0.011996|
|         927|   -7.748425|  -10.397873|    0.824000|    0.011996|
|         928|   -7.749369|  -10.402313|    0.824000|    0.011996|
|         929|   -7.749896|  -10.406656|    0.824000|    0.011996|
|         930|   -7.750017|  -10.410857|    0.824000|    0.011996|
|         931|   -7.749752|  -10.414873|    0.824000|    0.011996|
|         932|   -7.749125|  -10.418658|    0.824000|    0.011996|
|         933|   -7.748167|  -10.422170|    0.824000|    0.011996|
|         934|   -7.746914|  -10.425368|    0.824000|    0.011996|
|         935|   -7.745405|  -10.428217|    0.824000|    0.011996|
|         936|   -7.743683|  -10.430682|    0.824000|    0.011996|
|         937|   -7.741794|  -10.432739|    0.824000|    0.011996|
|         938|   -7.739782|  -10.434367|    0.824000|    0.011996|
|         939|   -7.737693|  -10.435556|    0.824000|    0.011996|
|         940|   -7.735573|  -10.436300|    0.824000|    0.011996|
|         941|   -7.733463|  -10.436606|    0.824000|    0.011996|
|         942|   -7.731408|  -10.436486|    0.824000|    0.011996|
|         943|   -7.729445|  -10.435963|    0.824000|    0.011996|
|         944|   -7.727611|  -10.435066|    0.824000|    0.011996|
|         945|   -7.725941|  -10.433831|    0.824000|    0.011996|
|         946|   -7.724466|  -10.432300|    0.824000|    0.011996|
|         947|   -7.723213|  -10.430521|    0.824000|    0.011996|
|         948|   -7.722209|  -10.428543|    0.824000|    0.011996|
|         949|   -7.721474|  -10.426420|    0.824000|    0.011996|
|         950|   -7.721028|  -10.424205|    0.824000|    0.011996|
|         951|   -7.720887|  -10.421954|    0.824000|    0.011996|
|         952|   -7.721065|  -10.419719|    0.824000|    0.011996|
|         953|   -7.721573|  -10.417552|    0.824000|    0.011996|
|         954|   -7.722419|  -10.415505|    0.824000|    0.011996|
|         955|   -7.723607|  -10.413624|    0.824000|    0.011996|
|         956|   -7.725142|  -10.411955|    0.824000|    0.011996|
|         957|   -7.727023|  -10.410539|    0.824000|    0.011996|
|         958|   -7.729249|  -10.409415|    0.824000|    0.011996|
|         959|   -7.731814|  -10.408618|    0.824000|    0.011996|
|         960|   -7.734712|  -10.408181|    0.824000|    0.011996|
|         961|   -7.737931|  -10.408133|    0.824000|    0.011996|
|         962|   -7.741461|  -10.408499|    0.824000|    0.011996|
|         963|   -7.745284|  -10.409303|    0.824000|    0.011996|
|         964|   -7.749382|  -10.410565|    0.824000|    0.011996|
|         965|   -7.753735|  -10.412300|    0.824000|    0.011996|
|         966|   -7.758317|  -10.414524|    0.824000|    0.011996|
|         967|   -7.763102|  -10.417248|    0.824000|    0.011996|
[...]
|        5072|   -6.009877|   -7.916213|    0.824238|    0.012000|
|        5073|   -6.017917|   -7.920261|    0.824238|    0.012000|
|        5074|   -6.025820|   -7.924232|    0.824238|    0.012000|
|        5075|   -6.033516|   -7.928151|    0.824238|    0.012000|
|        5076|   -6.040938|   -7.932043|    0.824238|    0.012000|
|        5077|   -6.048026|   -7.935932|    0.824239|    0.012000|
|        5078|   -6.054728|   -7.939839|    0.824239|    0.012000|
|        5079|   -6.061000|   -7.943782|    0.824239|    0.012000|
|        5080|   -6.066808|   -7.947777|    0.824239|    0.012000|
|        5081|   -6.072133|   -7.951836|    0.824239|    0.012000|
|        5082|   -6.076965|   -7.955970|    0.824239|    0.012000|
|        5083|   -6.081310|   -7.960185|    0.824239|    0.011999|
|        5084|   -6.085184|   -7.964486|    0.824239|    0.011999|
|        5085|   -6.088618|   -7.968878|    0.824239|    0.011999|
|        5086|   -6.091648|   -7.973362|    0.824239|    0.011999|
|        5087|   -6.094322|   -7.977939|    0.824239|    0.011999|
|        5088|   -6.096693|   -7.982610|    0.824240|    0.011999|
|        5089|   -6.098819|   -7.987376|    0.824240|    0.011999|
|        5090|   -6.100759|   -7.992237|    0.824240|    0.011999|
|        5091|   -6.102573|   -7.997193|    0.824240|    0.011999|
|        5092|   -6.104321|   -8.002248|    0.824240|    0.011999|
|        5093|   -6.106058|   -8.007402|    0.824240|    0.011999|
|        5094|   -6.107836|   -8.012659|    0.824240|    0.011999|
|        5095|   -6.109704|   -8.018022|    0.824240|    0.011999|
|        5096|   -6.111703|   -8.023496|    0.824240|    0.011999|
|        5097|   -6.113869|   -8.029084|    0.824240|    0.011999|
|        5098|   -6.116232|   -8.034792|    0.824241|    0.011999|
|        5099|   -6.118815|   -8.040623|    0.824241|    0.011999|
|        5100|   -6.121635|   -8.046581|    0.824241|    0.012000|
|        5101|   -6.124700|   -8.052669|    0.824241|    0.012000|
|        5102|   -6.128013|   -8.058889|    0.824241|    0.012000|
|        5103|   -6.131572|   -8.065243|    0.824241|    0.012000|
|        5104|   -6.135365|   -8.071728|    0.824241|    0.012000|
|        5105|   -6.139375|   -8.078344|    0.824242|    0.012000|
|        5106|   -6.143580|   -8.085085|    0.824242|    0.012000|
|        5107|   -6.147952|   -8.091947|    0.824242|    0.012000|
|        5108|   -6.152456|   -8.098923|    0.824242|    0.012000|
|        5109|   -6.157057|   -8.106007|    0.824242|    0.012000|
|        5110|   -6.161711|   -8.113188|    0.824242|    0.012000|
|        5111|   -6.166376|   -8.120459|    0.824242|    0.012000|
|        5112|   -6.171006|   -8.127807|    0.824243|    0.012000|
|        5113|   -6.175555|   -8.135224|    0.824243|    0.012000|
|        5114|   -6.179979|   -8.142698|    0.824243|    0.012001|
|        5115|   -6.184236|   -8.150218|    0.824243|    0.012001|
|        5116|   -6.188290|   -8.157775|    0.824243|    0.012001|
|        5117|   -6.192106|   -8.165364|    0.824243|    0.012001|
|        5118|   -6.195660|   -8.172973|    0.824243|    0.012001|
|        5119|   -6.198935|   -8.180595|    0.824244|    0.012001|
|        5120|   -6.201922|   -8.188224|    0.824244|    0.012001|
|        5121|   -6.204620|   -8.195855|    0.824244|    0.012001|
|        5122|   -6.207040|   -8.203484|    0.824244|    0.012001|
|        5123|   -6.209197|   -8.211108|    0.824244|    0.012001|
|        5124|   -6.211117|   -8.218726|    0.824244|    0.012001|
|        5125|   -6.212830|   -8.226339|    0.824244|    0.012001|
|        5126|   -6.214376|   -8.233942|    0.824244|    0.012001|
|        5127|   -6.215792|   -8.241540|    0.824244|    0.012002|
|        5128|   -6.217125|   -8.249137|    0.824244|    0.012002|
|        5129|   -6.218421|   -8.256735|    0.824245|    0.012002|
|        5130|   -6.219724|   -8.264339|    0.824245|    0.012002|
|        5131|   -6.221081|   -8.271952|    0.824245|    0.012002|
|        5132|   -6.222534|   -8.279577|    0.824245|    0.012002|
|        5133|   -6.224125|   -8.287216|    0.824245|    0.012002|
|        5134|   -6.225891|   -8.294872|    0.824245|    0.012002|
|        5135|   -6.227864|   -8.302548|    0.824245|    0.012002|
|        5136|   -6.230076|   -8.310244|    0.824245|    0.012002|
|        5137|   -6.232549|   -8.317961|    0.824245|    0.012002|
|        5138|   -6.235304|   -8.325701|    0.824245|    0.012002|
|        5139|   -6.238357|   -8.333462|    0.824245|    0.012002|
|        5140|   -6.241717|   -8.341242|    0.824245|    0.012002|
|        5141|   -6.245389|   -8.349040|    0.824245|    0.012002|
|        5142|   -6.249374|   -8.356849|    0.824245|    0.012002|
|        5143|   -6.253667|   -8.364664|    0.824245|    0.012002|
|        5144|   -6.258259|   -8.372478|    0.824245|    0.012002|
|        5145|   -6.263133|   -8.380282|    0.824245|    0.012002|
|        5146|   -6.268270|   -8.388068|    0.824245|    0.012002|
|        5147|   -6.273647|   -8.395838|    0.824245|    0.012002|
|        5148|   -6.279233|   -8.403577|    0.824245|    0.012002|
|        5149|   -6.284994|   -8.411266|    0.824245|    0.012002|
|        5150|   -6.290893|   -8.418889|    0.824245|    0.012002|
|        5151|   -6.296889|   -8.426434|    0.824245|    0.012002|
|        5152|   -6.302935|   -8.433892|    0.824245|    0.012002|
|        5153|   -6.308987|   -8.441251|    0.824245|    0.012002|
|        5154|   -6.314994|   -8.448506|    0.824245|    0.012002|
|        5155|   -6.320908|   -8.455655|    0.824245|    0.012002|
|        5156|   -6.326680|   -8.462687|    0.824245|    0.012002|
|        5157|   -6.332262|   -8.469594|    0.824245|    0.012002|
|        5158|   -6.337610|   -8.476370|    0.824245|    0.012001|
|        5159|   -6.342684|   -8.483011|    0.824245|    0.012001|
|        5160|   -6.347449|   -8.489511|    0.824245|    0.012001|
|        5161|   -6.351874|   -8.495871|    0.824245|    0.012001|
|        5162|   -6.355939|   -8.502093|    0.824245|    0.012001|
|        5163|   -6.359627|   -8.508178|    0.824245|    0.012001|
|        5164|   -6.362932|   -8.514127|    0.824245|    0.012001|
|        5165|   -6.365851|   -8.519950|    0.824245|    0.012001|
|        5166|   -6.368393|   -8.525655|    0.824245|    0.012001|
|        5167|   -6.370569|   -8.531251|    0.824245|    0.012001|
|        5168|   -6.372398|   -8.536742|    0.824245|    0.012001|
|        5169|   -6.373900|   -8.542134|    0.824245|    0.012001|
|        5170|   -6.375101|   -8.547427|    0.824245|    0.012000|
|        5171|   -6.376028|   -8.552622|    0.824245|    0.012000|
|        5172|   -6.376707|   -8.557714|    0.824245|    0.012000|
|        5173|   -6.377167|   -8.562699|    0.824245|    0.012000|
|        5174|   -6.377434|   -8.567569|    0.824245|    0.012000|
|        5175|   -6.377532|   -8.572313|    0.824245|    0.012000|
|        5176|   -6.377484|   -8.576921|    0.824245|    0.012000|
|        5177|   -6.377310|   -8.581379|    0.824245|    0.012000|
|        5178|   -6.377027|   -8.585674|    0.824245|    0.012000|
|        5179|   -6.376650|   -8.589793|    0.824246|    0.012000|
|        5180|   -6.376192|   -8.593721|    0.824246|    0.011999|
|        5181|   -6.375662|   -8.597449|    0.824246|    0.011999|
|        5182|   -6.375068|   -8.600964|    0.824246|    0.011999|
|        5183|   -6.374417|   -8.604262|    0.824246|    0.011999|
|        5184|   -6.373712|   -8.607362|    0.824246|    0.011999|
|        5185|   -6.372959|   -8.610255|    0.824246|    0.011999|
|        5186|   -6.372158|   -8.612939|    0.824246|    0.011999|
|        5187|   -6.371312|   -8.615416|    0.824247|    0.011999|
|        5188|   -6.370423|   -8.617693|    0.824247|    0.011999|
|        5189|   -6.369494|   -8.619781|    0.824247|    0.011999|
|        5190|   -6.368526|   -8.621695|    0.824247|    0.011998|
|        5191|   -6.367522|   -8.623449|    0.824247|    0.011998|
|        5192|   -6.366485|   -8.625062|    0.824247|    0.011998|
|        5193|   -6.365418|   -8.626553|    0.824247|    0.011998|
|        5194|   -6.364326|   -8.627939|    0.824247|    0.011998|
|        5195|   -6.363213|   -8.629240|    0.824248|    0.011998|
|        5196|   -6.362085|   -8.630471|    0.824248|    0.011998|
|        5197|   -6.360948|   -8.631662|    0.824248|    0.011998|
|        5198|   -6.359809|   -8.632823|    0.824248|    0.011998|
|        5199|   -6.358675|   -8.633965|    0.824248|    0.011998|
|        5200|   -6.357555|   -8.635096|    0.824248|    0.011998|
|        5201|   -6.356459|   -8.636217|    0.824248|    0.011998|
|        5202|   -6.355396|   -8.637328|    0.824248|    0.011998|
|        5203|   -6.354375|   -8.638428|    0.824248|    0.011998|
|        5204|   -6.353410|   -8.639513|    0.824248|    0.011998|
|        5205|   -6.352514|   -8.640579|    0.824249|    0.011998|
|        5206|   -6.351700|   -8.641617|    0.824249|    0.011998|
|        5207|   -6.350980|   -8.642616|    0.824249|    0.011997|
|        5208|   -6.350370|   -8.643565|    0.824249|    0.011997|
|        5209|   -6.349884|   -8.644454|    0.824249|    0.011997|
|        5210|   -6.349537|   -8.645274|    0.824249|    0.011997|
|        5211|   -6.349346|   -8.646018|    0.824249|    0.011997|
|        5212|   -6.349325|   -8.646682|    0.824249|    0.011997|
|        5213|   -6.349491|   -8.647263|    0.824249|    0.011997|
|        5214|   -6.349858|   -8.647763|    0.824249|    0.011997|
|        5215|   -6.350441|   -8.648183|    0.824249|    0.011997|
|        5216|   -6.351254|   -8.648530|    0.824249|    0.011998|
|        5217|   -6.352311|   -8.648808|    0.824249|    0.011998|
|        5218|   -6.353622|   -8.649025|    0.824249|    0.011998|
|        5219|   -6.355198|   -8.649193|    0.824249|    0.011998|
|        5220|   -6.357048|   -8.649321|    0.824249|    0.011998|
|        5221|   -6.359179|   -8.649420|    0.824249|    0.011998|
|        5222|   -6.361595|   -8.649503|    0.824249|    0.011998|
|        5223|   -6.364299|   -8.649580|    0.824249|    0.011998|
|        5224|   -6.367290|   -8.649660|    0.824249|    0.011998|
|        5225|   -6.370566|   -8.649755|    0.824249|    0.011998|
|        5226|   -6.374121|   -8.649871|    0.824249|    0.011998|
|        5227|   -6.377946|   -8.650016|    0.824249|    0.011998|
|        5228|   -6.382027|   -8.650197|    0.824249|    0.011998|
|        5229|   -6.386349|   -8.650417|    0.824249|    0.011998|
|        5230|   -6.390893|   -8.650679|    0.824249|    0.011998|
|        5231|   -6.395636|   -8.650986|    0.824249|    0.011998|
|        5232|   -6.400550|   -8.651334|    0.824249|    0.011998|
|        5233|   -6.405605|   -8.651724|    0.824249|    0.011998|
|        5234|   -6.410766|   -8.652154|    0.824249|    0.011999|
|        5235|   -6.415998|   -8.652620|    0.824249|    0.011999|
|        5236|   -6.421259|   -8.653119|    0.824249|    0.011999|
|        5237|   -6.426507|   -8.653645|    0.824249|    0.011999|
|        5238|   -6.431698|   -8.654195|    0.824249|    0.011999|
|        5239|   -6.436784|   -8.654761|    0.824249|    0.011999|
|        5240|   -6.441721|   -8.655340|    0.824249|    0.011999|
|        5241|   -6.446461|   -8.655925|    0.824249|    0.011999|
|        5242|   -6.450961|   -8.656512|    0.824249|    0.011999|
|        5243|   -6.455179|   -8.657097|    0.824248|    0.011999|
|        5244|   -6.459077|   -8.657674|    0.824248|    0.011999|
|        5245|   -6.462620|   -8.658241|    0.824248|    0.011999|
|        5246|   -6.465782|   -8.658794|    0.824248|    0.012000|
|        5247|   -6.468541|   -8.659331|    0.824248|    0.012000|
|        5248|   -6.470882|   -8.659851|    0.824248|    0.012000|
|        5249|   -6.472798|   -8.660351|    0.824248|    0.012000|
|        5250|   -6.474290|   -8.660830|    0.824248|    0.012000|
|        5251|   -6.475366|   -8.661289|    0.824248|    0.012000|
|        5252|   -6.476041|   -8.661727|    0.824247|    0.012000|
|        5253|   -6.476335|   -8.662144|    0.824247|    0.012000|
|        5254|   -6.476276|   -8.662540|    0.824247|    0.012000|
|        5255|   -6.475894|   -8.662916|    0.824247|    0.012000|
|        5256|   -6.475226|   -8.663272|    0.824247|    0.012000|
|        5257|   -6.474308|   -8.663610|    0.824247|    0.012000|
|        5258|   -6.473179|   -8.663930|    0.824247|    0.012000|
|        5259|   -6.471880|   -8.664233|    0.824246|    0.012000|
|        5260|   -6.470450|   -8.664521|    0.824246|    0.012000|
|        5261|   -6.468928|   -8.664795|    0.824246|    0.012000|
|        5262|   -6.467351|   -8.665055|    0.824246|    0.012000|
|        5263|   -6.465755|   -8.665305|    0.824246|    0.012000|
|        5264|   -6.464173|   -8.665546|    0.824246|    0.012000|
|        5265|   -6.462637|   -8.665780|    0.824245|    0.012001|
|        5266|   -6.461173|   -8.666010|    0.824245|    0.012001|
|        5267|   -6.459807|   -8.666240|    0.824245|    0.012001|
|        5268|   -6.458562|   -8.666472|    0.824245|    0.012001|
|        5269|   -6.457457|   -8.666711|    0.824245|    0.012001|
|        5270|   -6.456510|   -8.666961|    0.824245|    0.012001|
|        5271|   -6.455734|   -8.667228|    0.824245|    0.012001|
|        5272|   -6.455142|   -8.667515|    0.824244|    0.012001|
|        5273|   -6.454744|   -8.667830|    0.824244|    0.012000|
|        5274|   -6.454548|   -8.668178|    0.824244|    0.012000|
|        5275|   -6.454559|   -8.668565|    0.824244|    0.012000|
|        5276|   -6.454782|   -8.668999|    0.824244|    0.012000|
|        5277|   -6.455219|   -8.669485|    0.824244|    0.012000|
|        5278|   -6.455872|   -8.670030|    0.824244|    0.012000|
|        5279|   -6.456740|   -8.670641|    0.824244|    0.012000|
|        5280|   -6.457823|   -8.671323|    0.824244|    0.012000|
|        5281|   -6.459119|   -8.672084|    0.824243|    0.012000|
|        5282|   -6.460626|   -8.672927|    0.824244|    0.011986|
+-----------------------------------------------------------------------+
|Fixed CL Mode (Finite Difference)       |Value                         |
+-----------------------------------------------------------------------+
|Delta CL / Delta AoA                    |0.243727                      |
|Delta CD / Delta CL                     |0.019125                      |
|Delta CMz / Delta CL                    |0.00941826                    |
+-----------------------------------------------------------------------+
Writing Flow Meta-Data file: flow.meta

--------------------------- Finalizing Solver ---------------------------
Deleted CNumerics container.
Deleted CIntegration container.
Deleted CSolver container.
Deleted CIteration container.
Deleted CInterface container.
Deleted CGeometry container.
Deleted CFreeFormDefBox class.
Deleted CSurfaceMovement class.
Deleted CVolumetricMovement class.
Deleted CConfig container.
Deleted nInst container.
Deleted COutput class.
-------------------------------------------------------------------------

------------------------- Exit Success (SU2_CFD) ------------------------


-------------------------------------------------------------------------
|    ___ _   _ ___                                                      |
|   / __| | | |_  )   Release 8.0.0 "Harrier"                           |
|   \__ \ |_| |/ /                                                      |
|   |___/\___//___|   Suite (Solution Exporting Code)                   |
|                                                                       |
-------------------------------------------------------------------------
| SU2 Project Website: https://su2code.github.io                        |
|                                                                       |
| The SU2 Project is maintained by the SU2 Foundation                   |
| (http://su2foundation.org)                                            |
-------------------------------------------------------------------------
| Copyright 2012-2023, SU2 Contributors                                 |
|                                                                       |
| SU2 is free software; you can redistribute it and/or                  |
| modify it under the terms of the GNU Lesser General Public            |
| License as published by the Free Software Foundation; either          |
| version 2.1 of the License, or (at your option) any later version.    |
|                                                                       |
| SU2 is distributed in the hope that it will be useful,                |
| but WITHOUT ANY WARRANTY; without even the implied warranty of        |
| MERCHANTABILITY or FITNESS FOR A PARTICULAR PURPOSE. See the GNU      |
| Lesser General Public License for more details.                       |
|                                                                       |
| You should have received a copy of the GNU Lesser General Public      |
| License along with SU2. If not, see <http://www.gnu.org/licenses/>.   |
-------------------------------------------------------------------------

----------------- Physical Case Definition ( Zone 0 ) -------------------
Input mesh file name: mesh_RAE2822_turb_deform.su2

-------------------- Output Information ( Zone 0 ) ----------------------
The tabular file format is CSV (.csv).
Flow variables file name: flow.

------------- Config File Boundary Information ( Zone 0 ) ---------------
+-----------------------------------------------------------------------+
|                        Marker Type|                        Marker Name|
+-----------------------------------------------------------------------+
|                          Far-field|                           FARFIELD|
+-----------------------------------------------------------------------+
|                     Heat flux wall|                            AIRFOIL|
+-----------------------------------------------------------------------+
Two dimensional problem.
13937 grid points before partitioning.
22842 volume elements before partitioning.
2 surface markers.
192 boundary elements in index 0 (Marker = AIRFOIL).
40 boundary elements in index 1 (Marker = FARFIELD).
Executing the partitioning functions.
Building the graph adjacency structure.
Calling ParMETIS... graph partitioning complete (831 edge cuts).
Distributing ParMETIS coloring.
Rebalancing vertices.
Rebalancing volume element connectivity.
Rebalancing markers and surface elements.
14875 vertices including ghost points. 
23674 interior elements including halo cells. 
18780 triangles.
4894 quadrilaterals.
Establishing MPI communication patterns.
Identify vertices.
Storing a mapping from global to local point index.

------------------------- Solution Postprocessing -----------------------
Reading and storing the solution from restart_flow.
Volume output fields: COORDINATES, SOLUTION
  Info: Ignoring the following screen output fields:
  RMS_DENSITY, RMS_NU_TILDE, LIFT, DRAG
Screen output fields: INNER_ITER
  Info: Ignoring the following history output groups:
  RMS_RES, AERO_COEFF
History output group(s): ITER
Warning: No (valid) fields chosen for convergence monitoring. Convergence monitoring inactive.
Warning: No (valid) fields chosen for time convergence monitoring. Time convergence monitoring inactive.
|Paraview                           |flow.vtu                           |
|Paraview surface                   |surface_flow.vtu                   |
|CSV file                           |surface_flow.csv                   |

------------------------- Finalize Solver -------------------------
Deleted CGeometry container.
Deleted CSolver class.
Deleted CConfig container.
Deleted COutput class.

Completed in 0.014718 seconds on 6 cores.

------------------------- Exit Success (SU2_SOL) ------------------------

