
-------------------------------------------------------------------------
|    ___ _   _ ___                                                      |
|   / __| | | |_  )   Release 8.0.0 "Harrier"                           |
|   \__ \ |_| |/ /                                                      |
|   |___/\___//___|   Suite (Computational Fluid Dynamics Code)         |
|                                                                       |
-------------------------------------------------------------------------
| SU2 Project Website: https://su2code.github.io                        |
|                                                                       |
| The SU2 Project is maintained by the SU2 Foundation                   |
| (http://su2foundation.org)                                            |
-------------------------------------------------------------------------
| Copyright 2012-2023, SU2 Contributors                                 |
|                                                                       |
| SU2 is free software; you can redistribute it and/or                  |
| modify it under the terms of the GNU Lesser General Public            |
| License as published by the Free Software Foundation; either          |
| version 2.1 of the License, or (at your option) any later version.    |
|                                                                       |
| SU2 is distributed in the hope that it will be useful,                |
| but WITHOUT ANY WARRANTY; without even the implied warranty of        |
| MERCHANTABILITY or FITNESS FOR A PARTICULAR PURPOSE. See the GNU      |
| Lesser General Public License for more details.                       |
|                                                                       |
| You should have received a copy of the GNU Lesser General Public      |
| License along with SU2. If not, see <http://www.gnu.org/licenses/>.   |
-------------------------------------------------------------------------

Parsing config file for zone 0

----------------- Physical Case Definition ( Zone 0 ) -------------------
Compressible RANS equations.
Turbulence model: Spalart-Allmaras-noft2
Hybrid RANS/LES: No Hybrid RANS/LES
Mach number: 0.734.
Angle of attack (AoA): 2.31 deg, and angle of sideslip (AoS): 0 deg.
Reynolds number: 6.5e+06. Reference length 1.
Fixed CL mode, target value: 0.824.
Reading and writing binary SU2 native restart files.
Read flow solution from: solution_flow.dat.
Dimensional simulation.
The reference area is 1 m^2.
The semi-span will be computed using the max y(3D) value.
The reference length is 1 m.
Reference origin for moment evaluation is (0.25, 0, 0).
Surface(s) where the force coefficients are evaluated: AIRFOIL.

Surface(s) plotted in the output file: AIRFOIL.
Surface(s) affected by the design variables: AIRFOIL.
Input mesh file name: mesh_RAE2822_turb_deform.su2

--------------- Space Numerical Integration ( Zone 0 ) ------------------
Jameson-Schmidt-Turkel scheme (2nd order in space) for the flow inviscid terms.
JST viscous coefficients (2nd & 4th): 0.5, 0.02.
The method includes a grid stretching correction (p = 0.3).
Scalar upwind solver for the turbulence model.
First order integration in space.
Average of gradients with correction (viscous flow terms).
Average of gradients with correction (viscous turbulence terms).
Gradient for viscous and source terms: inverse-distance weighted Least-Squares.

--------------- Time Numerical Integration  ( Zone 0 ) ------------------
Local time stepping (steady state simulation).
Euler implicit method for the flow equations.
FGMRES is used for solving the linear system.
Using a ILU(0) preconditioning.
Convergence criteria of the linear solver: 1e-06.
Max number of linear iterations: 10.
No CFL adaptation.
Courant-Friedrichs-Lewy number:       10
Euler implicit time integration for the turbulence model.

------------------ Convergence Criteria  ( Zone 0 ) ---------------------
Maximum number of solver subiterations: 5500.
Begin convergence monitoring at iteration 10.
Residual minimum value: 1e-12.
Cauchy series min. value: 1e-06.
Number of Cauchy elements: 100.
Begin windowed time average at iteration 0.

-------------------- Output Information ( Zone 0 ) ----------------------
File writing frequency: 
+------------------------------------+
|                     File| Frequency|
+------------------------------------+
|                  RESTART|     10000|
|                 PARAVIEW|     10000|
|         SURFACE_PARAVIEW|     10000|
|              SURFACE_CSV|     10000|
+------------------------------------+
Writing the convergence history file every 1 inner iterations.
Writing the screen convergence history every 1 inner iterations.
The tabular file format is CSV (.csv).
Convergence history file name: history_direct.
Forces breakdown file name: forces_breakdown.dat.
Surface file name: surface_flow.
Volume file name: flow.
Restart file name: restart_flow.dat.

------------- Config File Boundary Information ( Zone 0 ) ---------------
+-----------------------------------------------------------------------+
|                        Marker Type|                        Marker Name|
+-----------------------------------------------------------------------+
|                          Far-field|                           FARFIELD|
+-----------------------------------------------------------------------+
|                     Heat flux wall|                            AIRFOIL|
+-----------------------------------------------------------------------+

-------------------- Output Preprocessing ( Zone 0 ) --------------------

WARNING: SURFACE_PRESSURE_DROP can only be computed for at least 2 surfaces (outlet, inlet, ...)

Screen output fields: INNER_ITER, RMS_DENSITY, RMS_NU_TILDE, LIFT, DRAG
History output group(s): ITER, RMS_RES, AERO_COEFF
Convergence field(s): RMS_DENSITY
Warning: No (valid) fields chosen for time convergence monitoring. Time convergence monitoring inactive.
Volume output fields: COORDINATES, SOLUTION, PRIMITIVE

------------------- Geometry Preprocessing ( Zone 0 ) -------------------
Two dimensional problem.
13937 grid points before partitioning.
22842 volume elements before partitioning.
2 surface markers.
192 boundary elements in index 0 (Marker = AIRFOIL).
40 boundary elements in index 1 (Marker = FARFIELD).
Executing the partitioning functions.
Building the graph adjacency structure.
Calling ParMETIS... graph partitioning complete (831 edge cuts).
Distributing ParMETIS coloring.
Rebalancing vertices.
Rebalancing volume element connectivity.
Rebalancing markers and surface elements.
14875 vertices including ghost points. 
23674 interior elements including halo cells. 
18780 triangles.
4894 quadrilaterals.
Establishing MPI communication patterns.
Setting point connectivity.
Renumbering points (Reverse Cuthill McKee Ordering).
Recomputing point connectivity.
Setting element connectivity.
Checking the numerical grid orientation.
All volume elements are correctly orientend.
All surface elements are correctly orientend.
Identifying edges and vertices.
Setting the control volume structure.
Area of the computational grid: 32209.9.
Searching for the closest normal neighbors to the surfaces.
Storing a mapping from global to local point index.
Compute the surface curvature.
Max K: 189.291. Mean K: 8.09929. Standard deviation K: 25.5295.
Checking for periodicity.
Computing mesh quality statistics for the dual control volumes.
+--------------------------------------------------------------+
|           Mesh Quality Metric|        Minimum|        Maximum|
+--------------------------------------------------------------+
|    Orthogonality Angle (deg.)|        74.8639|        89.9999|
|     CV Face Area Aspect Ratio|        1.00522|        3358.38|
|           CV Sub-Volume Ratio|        1.00047|         1218.1|
+--------------------------------------------------------------+
Finding max control volume width.
Communicating number of neighbors.
Wetted area = 2.02143 m.
Area projection in the x-plane = 0.126249 m, y-plane = 0.995873 m.
Max. coordinate in the x-direction = 1 m, y-direction = 0.0619832 m.
Min. coordinate in the x-direction = 0 m, y-direction = -0.0608303 m.
Computing wall distances.

-------------------- Solver Preprocessing ( Zone 0 ) --------------------
WARNING: AoA in the solution file (2.78026 deg.) +
         AoA offset in mesh file (0 deg.) = 2.78026 deg.
WARNING: SU2 will use the dCD/dCL provided in the direct solution file: 0.0182702.
WARNING: SU2 will use the dCMz/dCL provided in the direct solution file: 0.00709353.
Viscous flow: Computing pressure using the ideal gas law
based on the free-stream temperature and a density computed
from the Reynolds number.
Force coefficients computed using free-stream values.

-- Models:
+------------------------------------------------------------------------------+
|          Viscosity Model|        Conductivity Model|              Fluid Model|
+------------------------------------------------------------------------------+
|               SUTHERLAND|          CONSTANT_PRANDTL|             STANDARD_AIR|
+------------------------------------------------------------------------------+
-- Fluid properties:
+------------------------------------------------------------------------------+
|                  Name|    Dim. value|    Ref. value|      Unit|Non-dim. value|
+------------------------------------------------------------------------------+
|        Ref. Viscosity|     1.716e-05|             1|   N.s/m^2|     1.716e-05|
|      Sutherland Temp.|        273.15|             1|         K|        273.15|
|     Sutherland Const.|         110.4|             1|         K|         110.4|
+------------------------------------------------------------------------------+
|        Prandtl (Lam.)|             -|             -|         -|          0.71|
|       Prandtl (Turb.)|             -|             -|         -|           0.9|
+------------------------------------------------------------------------------+
|          Gas Constant|       287.058|             1|  N.m/kg.K|       287.058|
|      Spec. Heat Ratio|             -|             -|         -|           1.4|
+------------------------------------------------------------------------------+
-- Initial and free-stream conditions:
+------------------------------------------------------------------------------+
|                  Name|    Dim. value|    Ref. value|      Unit|Non-dim. value|
+------------------------------------------------------------------------------+
|       Static Pressure|         38515|             1|        Pa|         38515|
|               Density|      0.465631|             1|    kg/m^3|      0.465631|
|           Temperature|        288.15|             1|         K|        288.15|
|          Total Energy|        237984|             1|   m^2/s^2|        237984|
|            Velocity-X|       249.484|             1|       m/s|       249.484|
|            Velocity-Y|       12.1157|             1|       m/s|       12.1157|
|    Velocity Magnitude|       249.778|             1|       m/s|       249.778|
+------------------------------------------------------------------------------+
|             Viscosity|    1.7893e-05|             1|   N.s/m^2|    1.7893e-05|
|          Conductivity|             -|             1|   W/m^2.K|             -|
|     Turb. Kin. Energy|       233.959|             1|   m^2/s^2|       233.959|
|     Spec. Dissipation|        608834|             1|       1/s|        608834|
+------------------------------------------------------------------------------+
|           Mach Number|             -|             -|         -|         0.734|
|       Reynolds Number|             -|             -|         -|       6.5e+06|
+------------------------------------------------------------------------------+
Initialize Jacobian structure (Navier-Stokes). MG level: 0.
Initialize Jacobian structure (SA model).

------------------- Numerics Preprocessing ( Zone 0 ) -------------------

----------------- Integration Preprocessing ( Zone 0 ) ------------------

------------------- Iteration Preprocessing ( Zone 0 ) ------------------
Euler/Navier-Stokes/RANS fluid iteration.

------------------------------ Begin Solver -----------------------------

Simulation Run using the Single-zone Driver
WARNING: SU2 was not compiled for an AVX-capable architecture. Performance could be better,
         see https://su2code.github.io/docs_v7/Build-SU2-Linux-MacOS/#compiler-optimizations
+----------------------------------------------------------------+
|  Inner_Iter|    rms[Rho]|     rms[nu]|          CL|          CD|
+----------------------------------------------------------------+
|           0|   -5.365451|   -6.655537|    0.824013|    0.011991|
|           1|   -5.423080|   -6.750318|    0.824015|    0.011992|
|           2|   -5.481679|   -6.863879|    0.824009|    0.011993|
|           3|   -5.525028|   -6.989425|    0.824002|    0.011995|
|           4|   -5.555344|   -7.112504|    0.823994|    0.011995|
|           5|   -5.574481|   -7.210983|    0.823989|    0.011995|
|           6|   -5.583668|   -7.270588|    0.823987|    0.011995|
|           7|   -5.585411|   -7.297182|    0.823986|    0.011994|
|           8|   -5.582641|   -7.302550|    0.823987|    0.011993|
|           9|   -5.577450|   -7.291862|    0.823990|    0.011993|
|          10|   -5.570860|   -7.267634|    0.823994|    0.011992|
|          11|   -5.563296|   -7.235546|    0.823999|    0.011993|
|          12|   -5.555039|   -7.203614|    0.824004|    0.011993|
|          13|   -5.546363|   -7.178633|    0.824010|    0.011995|
|          14|   -5.537528|   -7.164522|    0.824016|    0.011996|
|          15|   -5.528787|   -7.162419|    0.824021|    0.011998|
|          16|   -5.520447|   -7.171007|    0.824026|    0.011999|
|          17|   -5.512891|   -7.186471|    0.824029|    0.012001|
|          18|   -5.506522|   -7.202492|    0.824032|    0.012003|
|          19|   -5.501661|   -7.211563|    0.824033|    0.012005|
|          20|   -5.498445|   -7.208523|    0.824033|    0.012006|
|          21|   -5.496787|   -7.193901|    0.824031|    0.012008|
|          22|   -5.496392|   -7.173064|    0.824028|    0.012009|
|          23|   -5.496824|   -7.152326|    0.824025|    0.012010|
|          24|   -5.497596|   -7.136257|    0.824020|    0.012011|
|          25|   -5.498257|   -7.127241|    0.824015|    0.012011|
|          26|   -5.498464|   -7.126018|    0.824009|    0.012012|
|          27|   -5.498026|   -7.132276|    0.824003|    0.012012|
|          28|   -5.496906|   -7.145008|    0.823996|    0.012012|
|          29|   -5.495199|   -7.162703|    0.823990|    0.012012|
|          30|   -5.493080|   -7.183456|    0.823983|    0.012012|
|          31|   -5.490743|   -7.205112|    0.823977|    0.012012|
|          32|   -5.488354|   -7.225509|    0.823971|    0.012011|
|          33|   -5.486021|   -7.242831|    0.823965|    0.012010|
|          34|   -5.483788|   -7.255961|    0.823959|    0.012010|
|          35|   -5.481646|   -7.264653|    0.823953|    0.012008|
|          36|   -5.479558|   -7.269421|    0.823947|    0.012007|
|          37|   -5.477474|   -7.271222|    0.823942|    0.012006|
|          38|   -5.475355|   -7.271110|    0.823937|    0.012004|
|          39|   -5.473170|   -7.269995|    0.823932|    0.012003|
|          40|   -5.470907|   -7.268560|    0.823928|    0.012001|
|          41|   -5.468563|   -7.267259|    0.823924|    0.012000|
|          42|   -5.466147|   -7.266372|    0.823921|    0.011998|
|          43|   -5.463674|   -7.266066|    0.823917|    0.011996|
|          44|   -5.461161|   -7.266435|    0.823914|    0.011995|
|          45|   -5.458624|   -7.267531|    0.823912|    0.011993|
|          46|   -5.456072|   -7.269383|    0.823910|    0.011992|
|          47|   -5.453503|   -7.271999|    0.823908|    0.011991|
|          48|   -5.450902|   -7.275375|    0.823907|    0.011989|
|          49|   -5.448244|   -7.279498|    0.823907|    0.011988|
|          50|   -5.445498|   -7.284350|    0.823906|    0.011987|
|          51|   -5.442634|   -7.289914|    0.823906|    0.011987|
|          52|   -5.439630|   -7.296165|    0.823907|    0.011986|
|          53|   -5.436486|   -7.303068|    0.823908|    0.011985|
|          54|   -5.433222|   -7.310561|    0.823909|    0.011984|
|          55|   -5.429879|   -7.318536|    0.823911|    0.011984|
|          56|   -5.426520|   -7.326828|    0.823913|    0.011983|
|          57|   -5.423218|   -7.335203|    0.823915|    0.011983|
|          58|   -5.420047|   -7.343362|    0.823918|    0.011982|
|          59|   -5.417074|   -7.350969|    0.823921|    0.011982|
|          60|   -5.414350|   -7.357683|    0.823924|    0.011982|
|          61|   -5.411904|   -7.363219|    0.823927|    0.011981|
|          62|   -5.409740|   -7.367393|    0.823930|    0.011981|
|          63|   -5.407839|   -7.370161|    0.823934|    0.011981|
|          64|   -5.406166|   -7.371628|    0.823937|    0.011980|
|          65|   -5.404674|   -7.372021|    0.823940|    0.011980|
|          66|   -5.403315|   -7.371645|    0.823943|    0.011980|
|          67|   -5.402051|   -7.370824|    0.823947|    0.011980|
|          68|   -5.400857|   -7.369847|    0.823950|    0.011980|
|          69|   -5.399725|   -7.368934|    0.823952|    0.011980|
|          70|   -5.398668|   -7.368217|    0.823955|    0.011980|
|          71|   -5.397712|   -7.367739|    0.823958|    0.011980|
|          72|   -5.396892|   -7.367469|    0.823960|    0.011980|
|          73|   -5.396246|   -7.367327|    0.823962|    0.011980|
|          74|   -5.395805|   -7.367211|    0.823964|    0.011980|
|          75|   -5.395590|   -7.367027|    0.823965|    0.011980|
|          76|   -5.395608|   -7.366708|    0.823967|    0.011981|
|          77|   -5.395854|   -7.366231|    0.823968|    0.011981|
|          78|   -5.396308|   -7.365616|    0.823969|    0.011981|
|          79|   -5.396943|   -7.364927|    0.823970|    0.011982|
|          80|   -5.397724|   -7.364257|    0.823970|    0.011982|
|          81|   -5.398620|   -7.363713|    0.823971|    0.011982|
|          82|   -5.399597|   -7.363406|    0.823971|    0.011983|
|          83|   -5.400633|   -7.363436|    0.823971|    0.011983|
|          84|   -5.401710|   -7.363885|    0.823971|    0.011983|
|          85|   -5.402816|   -7.364814|    0.823971|    0.011984|
|          86|   -5.403952|   -7.366265|    0.823971|    0.011984|
|          87|   -5.405118|   -7.368255|    0.823971|    0.011985|
|          88|   -5.406325|   -7.370787|    0.823971|    0.011985|
|          89|   -5.407584|   -7.373846|    0.823971|    0.011985|
|          90|   -5.408910|   -7.377408|    0.823971|    0.011986|
|          91|   -5.410323|   -7.381439|    0.823971|    0.011986|
|          92|   -5.411841|   -7.385900|    0.823971|    0.011987|
|          93|   -5.413488|   -7.390747|    0.823971|    0.011988|
|          94|   -5.415288|   -7.395935|    0.823971|    0.011988|
|          95|   -5.417267|   -7.401416|    0.823972|    0.011989|
|          96|   -5.419451|   -7.407141|    0.823972|    0.011990|
|          97|   -5.421866|   -7.413061|    0.823973|    0.011990|
|          98|   -5.424534|   -7.419125|    0.823973|    0.011991|
|          99|   -5.427472|   -7.425278|    0.823974|    0.011992|
|         100|   -5.430693|   -7.431467|    0.823975|    0.011993|
|         101|   -5.434196|   -7.437638|    0.823976|    0.011995|
+-----------------------------------------------------------------------+
|Fixed CL Mode                           |Value                         |
+-----------------------------------------------------------------------+
|Current CL                              |0.823976                      |
|Target CL                               |0.824                         |
|Previous AOA                            |2.78026                       |
|Changed AoA by                          |0.000124846                   |
+-----------------------------------------------------------------------+
+----------------------------------------------------------------+
|  Inner_Iter|    rms[Rho]|     rms[nu]|          CL|          CD|
+----------------------------------------------------------------+
|         102|   -4.096844|   -7.437422|    0.823977|    0.011996|
|         103|   -4.482780|   -7.446621|    0.823978|    0.011997|
|         104|   -4.731282|   -7.453283|    0.823979|    0.011998|
|         105|   -4.810174|   -7.459277|    0.823980|    0.011999|
|         106|   -4.859574|   -7.464878|    0.823981|    0.012000|
|         107|   -4.921626|   -7.470138|    0.823982|    0.012001|
|         108|   -4.995418|   -7.475065|    0.823983|    0.012002|
|         109|   -5.067194|   -7.479668|    0.823983|    0.012003|
|         110|   -5.123201|   -7.483963|    0.823984|    0.012004|
|         111|   -5.160619|   -7.487973|    0.823985|    0.012005|
|         112|   -5.184598|   -7.491727|    0.823985|    0.012006|
|         113|   -5.199766|   -7.495266|    0.823985|    0.012007|
|         114|   -5.208978|   -7.498631|    0.823985|    0.012008|
|         115|   -5.215428|   -7.501863|    0.823985|    0.012009|
|         116|   -5.222677|   -7.504993|    0.823985|    0.012009|
|         117|   -5.233149|   -7.508048|    0.823984|    0.012010|
|         118|   -5.247241|   -7.511056|    0.823984|    0.012011|
|         119|   -5.263583|   -7.514046|    0.823983|    0.012011|
|         120|   -5.280119|   -7.517056|    0.823982|    0.012012|
|         121|   -5.295348|   -7.520124|    0.823981|    0.012013|
|         122|   -5.309011|   -7.523291|    0.823980|    0.012013|
|         123|   -5.321820|   -7.526597|    0.823979|    0.012014|
|         124|   -5.334636|   -7.530082|    0.823978|    0.012014|
|         125|   -5.347820|   -7.533783|    0.823977|    0.012014|
|         126|   -5.361078|   -7.537736|    0.823976|    0.012015|
|         127|   -5.373690|   -7.541974|    0.823975|    0.012015|
|         128|   -5.384860|   -7.546524|    0.823974|    0.012015|
|         129|   -5.393985|   -7.551408|    0.823973|    0.012015|
|         130|   -5.400785|   -7.556641|    0.823972|    0.012016|
|         131|   -5.405338|   -7.562227|    0.823971|    0.012016|
|         132|   -5.408041|   -7.568162|    0.823970|    0.012016|
|         133|   -5.409519|   -7.574429|    0.823970|    0.012016|
|         134|   -5.410477|   -7.581003|    0.823969|    0.012016|
|         135|   -5.411542|   -7.587845|    0.823968|    0.012017|
|         136|   -5.413150|   -7.594906|    0.823968|    0.012017|
|         137|   -5.415493|   -7.602128|    0.823968|    0.012017|
|         138|   -5.418523|   -7.609442|    0.823968|    0.012017|
|         139|   -5.421999|   -7.616775|    0.823967|    0.012017|
|         140|   -5.425558|   -7.624051|    0.823967|    0.012018|
|         141|   -5.428800|   -7.631193|    0.823967|    0.012018|
|         142|   -5.431384|   -7.638135|    0.823967|    0.012018|
|         143|   -5.433106|   -7.644814|    0.823967|    0.012018|
|         144|   -5.433955|   -7.651178|    0.823967|    0.012018|
|         145|   -5.434101|   -7.657190|    0.823967|    0.012019|
|         146|   -5.433848|   -7.662828|    0.823967|    0.012019|
|         147|   -5.433545|   -7.668089|    0.823968|    0.012019|
|         148|   -5.433506|   -7.672986|    0.823968|    0.012019|
|         149|   -5.433956|   -7.677544|    0.823968|    0.012019|
|         150|   -5.435003|   -7.681807|    0.823968|    0.012019|
|         151|   -5.436644|   -7.685827|    0.823968|    0.012020|
|         152|   -5.438794|   -7.689658|    0.823968|    0.012020|
|         153|   -5.441318|   -7.693351|    0.823968|    0.012020|
|         154|   -5.444074|   -7.696955|    0.823968|    0.012020|
|         155|   -5.446936|   -7.700509|    0.823968|    0.012020|
|         156|   -5.449820|   -7.704045|    0.823968|    0.012020|
|         157|   -5.452687|   -7.707578|    0.823968|    0.012020|
|         158|   -5.455537|   -7.711115|    0.823969|    0.012020|
|         159|   -5.458397|   -7.714646|    0.823969|    0.012020|
|         160|   -5.461307|   -7.718152|    0.823969|    0.012020|
|         161|   -5.464305|   -7.721603|    0.823969|    0.012019|
|         162|   -5.467420|   -7.724961|    0.823969|    0.012019|
|         163|   -5.470665|   -7.728185|    0.823970|    0.012019|
|         164|   -5.474038|   -7.731234|    0.823970|    0.012019|
|         165|   -5.477528|   -7.734070|    0.823970|    0.012019|
|         166|   -5.481114|   -7.736661|    0.823971|    0.012019|
|         167|   -5.484776|   -7.738984|    0.823972|    0.012018|
|         168|   -5.488489|   -7.741026|    0.823972|    0.012018|
|         169|   -5.492233|   -7.742786|    0.823973|    0.012018|
|         170|   -5.495987|   -7.744273|    0.823974|    0.012018|
|         171|   -5.499730|   -7.745505|    0.823974|    0.012018|
|         172|   -5.503443|   -7.746507|    0.823975|    0.012017|
|         173|   -5.507101|   -7.747308|    0.823976|    0.012017|
|         174|   -5.510678|   -7.747934|    0.823977|    0.012017|
|         175|   -5.514147|   -7.748409|    0.823978|    0.012017|
|         176|   -5.517479|   -7.748751|    0.823979|    0.012017|
|         177|   -5.520643|   -7.748970|    0.823980|    0.012016|
|         178|   -5.523610|   -7.749071|    0.823981|    0.012016|
|         179|   -5.526355|   -7.749044|    0.823982|    0.012016|
|         180|   -5.528856|   -7.748881|    0.823983|    0.012016|
|         181|   -5.531098|   -7.748567|    0.823984|    0.012016|
|         182|   -5.533074|   -7.748088|    0.823985|    0.012016|
|         183|   -5.534785|   -7.747427|    0.823986|    0.012015|
|         184|   -5.536240|   -7.746573|    0.823987|    0.012015|
|         185|   -5.537459|   -7.745518|    0.823988|    0.012015|
|         186|   -5.538469|   -7.744261|    0.823989|    0.012015|
|         187|   -5.539304|   -7.742811|    0.823989|    0.012015|
|         188|   -5.540003|   -7.741185|    0.823990|    0.012015|
|         189|   -5.540608|   -7.739412|    0.823991|    0.012014|
|         190|   -5.541161|   -7.737526|    0.823991|    0.012014|
|         191|   -5.541702|   -7.735572|    0.823992|    0.012014|
|         192|   -5.542268|   -7.733596|    0.823992|    0.012014|
|         193|   -5.542888|   -7.731652|    0.823992|    0.012014|
|         194|   -5.543585|   -7.729791|    0.823993|    0.012014|
|         195|   -5.544371|   -7.728061|    0.823993|    0.012013|
|         196|   -5.545249|   -7.726510|    0.823993|    0.012013|
|         197|   -5.546211|   -7.725178|    0.823994|    0.012013|
|         198|   -5.547241|   -7.724098|    0.823994|    0.012013|
|         199|   -5.548311|   -7.723298|    0.823994|    0.012013|
|         200|   -5.549389|   -7.722799|    0.823994|    0.012013|
|         201|   -5.550433|   -7.722613|    0.823994|    0.012013|
+-----------------------------------------------------------------------+
|Fixed CL Mode                           |Value                         |
+-----------------------------------------------------------------------+
|Current CL                              |0.823994                      |
|Target CL                               |0.824                         |
|Previous AOA                            |2.78039                       |
|Changed AoA by                          |3.01664e-05                   |
+-----------------------------------------------------------------------+
+----------------------------------------------------------------+
|  Inner_Iter|    rms[Rho]|     rms[nu]|          CL|          CD|
+----------------------------------------------------------------+
|         202|   -4.708520|   -7.721310|    0.823994|    0.012013|
|         203|   -5.068523|   -7.722525|    0.823994|    0.012013|
|         204|   -5.266074|   -7.723516|    0.823994|    0.012012|
|         205|   -5.323728|   -7.724671|    0.823994|    0.012012|
|         206|   -5.359056|   -7.726031|    0.823994|    0.012012|
|         207|   -5.397066|   -7.727583|    0.823995|    0.012012|
|         208|   -5.434868|   -7.729308|    0.823995|    0.012012|
|         209|   -5.465271|   -7.731169|    0.823995|    0.012012|
|         210|   -5.485233|   -7.733125|    0.823995|    0.012012|
|         211|   -5.496889|   -7.735132|    0.823995|    0.012012|
|         212|   -5.503420|   -7.737144|    0.823995|    0.012012|
|         213|   -5.506696|   -7.739116|    0.823995|    0.012012|
|         214|   -5.507752|   -7.741008|    0.823996|    0.012012|
|         215|   -5.507611|   -7.742781|    0.823996|    0.012012|
|         216|   -5.507323|   -7.744398|    0.823996|    0.012012|
|         217|   -5.507612|   -7.745826|    0.823996|    0.012012|
|         218|   -5.508676|   -7.747039|    0.823997|    0.012012|
|         219|   -5.510320|   -7.748023|    0.823997|    0.012012|
|         220|   -5.512245|   -7.748762|    0.823997|    0.012013|
|         221|   -5.514288|   -7.749240|    0.823998|    0.012013|
|         222|   -5.516486|   -7.749474|    0.823998|    0.012013|
|         223|   -5.518987|   -7.749484|    0.823998|    0.012013|
|         224|   -5.521918|   -7.749292|    0.823999|    0.012013|
|         225|   -5.525320|   -7.748925|    0.823999|    0.012013|
|         226|   -5.529149|   -7.748401|    0.824000|    0.012014|
|         227|   -5.533325|   -7.747748|    0.824000|    0.012014|
|         228|   -5.537778|   -7.746996|    0.824001|    0.012014|
|         229|   -5.542468|   -7.746179|    0.824001|    0.012014|
|         230|   -5.547386|   -7.745323|    0.824002|    0.012014|
|         231|   -5.552543|   -7.744452|    0.824002|    0.012015|
|         232|   -5.557966|   -7.743598|    0.824003|    0.012015|
|         233|   -5.563685|   -7.742785|    0.824003|    0.012015|
|         234|   -5.569730|   -7.742028|    0.824004|    0.012015|
|         235|   -5.576113|   -7.741341|    0.824004|    0.012016|
|         236|   -5.582819|   -7.740741|    0.824005|    0.012016|
|         237|   -5.589799|   -7.740243|    0.824006|    0.012016|
|         238|   -5.596970|   -7.739848|    0.824006|    0.012016|
|         239|   -5.604219|   -7.739559|    0.824007|    0.012017|
|         240|   -5.611412|   -7.739376|    0.824008|    0.012017|
|         241|   -5.618410|   -7.739299|    0.824008|    0.012017|
|         242|   -5.625078|   -7.739328|    0.824009|    0.012017|
|         243|   -5.631303|   -7.739462|    0.824010|    0.012018|
|         244|   -5.637006|   -7.739700|    0.824011|    0.012018|
|         245|   -5.642141|   -7.740039|    0.824011|    0.012018|
|         246|   -5.646696|   -7.740477|    0.824012|    0.012018|
|         247|   -5.650684|   -7.741012|    0.824013|    0.012019|
|         248|   -5.654130|   -7.741639|    0.824014|    0.012019|
|         249|   -5.657066|   -7.742355|    0.824015|    0.012019|
|         250|   -5.659519|   -7.743159|    0.824015|    0.012019|
|         251|   -5.661517|   -7.744046|    0.824016|    0.012019|
|         252|   -5.663084|   -7.745015|    0.824017|    0.012020|
|         253|   -5.664252|   -7.746055|    0.824018|    0.012020|
|         254|   -5.665059|   -7.747163|    0.824018|    0.012020|
|         255|   -5.665558|   -7.748344|    0.824019|    0.012020|
|         256|   -5.665812|   -7.749600|    0.824020|    0.012020|
|         257|   -5.665895|   -7.750935|    0.824020|    0.012020|
|         258|   -5.665889|   -7.752355|    0.824021|    0.012020|
|         259|   -5.665874|   -7.753863|    0.824022|    0.012021|
|         260|   -5.665931|   -7.755464|    0.824022|    0.012021|
|         261|   -5.666133|   -7.757164|    0.824023|    0.012021|
|         262|   -5.666545|   -7.758970|    0.824023|    0.012021|
|         263|   -5.667224|   -7.760887|    0.824024|    0.012021|
|         264|   -5.668216|   -7.762919|    0.824024|    0.012021|
|         265|   -5.669561|   -7.765067|    0.824024|    0.012021|
|         266|   -5.671288|   -7.767336|    0.824025|    0.012021|
|         267|   -5.673422|   -7.769728|    0.824025|    0.012021|
|         268|   -5.675980|   -7.772242|    0.824025|    0.012021|
|         269|   -5.678974|   -7.774879|    0.824026|    0.012021|
|         270|   -5.682408|   -7.777637|    0.824026|    0.012020|
|         271|   -5.686284|   -7.780512|    0.824026|    0.012020|
|         272|   -5.690595|   -7.783502|    0.824026|    0.012020|
|         273|   -5.695332|   -7.786603|    0.824026|    0.012020|
|         274|   -5.700478|   -7.789807|    0.824026|    0.012020|
|         275|   -5.706013|   -7.793110|    0.824026|    0.012020|
|         276|   -5.711910|   -7.796505|    0.824026|    0.012020|
|         277|   -5.718137|   -7.799989|    0.824027|    0.012020|
|         278|   -5.724660|   -7.803560|    0.824027|    0.012019|
|         279|   -5.731437|   -7.807220|    0.824027|    0.012019|
|         280|   -5.738424|   -7.810971|    0.824027|    0.012019|
|         281|   -5.745572|   -7.814821|    0.824027|    0.012019|
|         282|   -5.752829|   -7.818779|    0.824027|    0.012019|
|         283|   -5.760139|   -7.822854|    0.824027|    0.012018|
|         284|   -5.767443|   -7.827059|    0.824027|    0.012018|
|         285|   -5.774680|   -7.831411|    0.824027|    0.012018|
|         286|   -5.781791|   -7.835923|    0.824027|    0.012018|
|         287|   -5.788712|   -7.840613|    0.824027|    0.012018|
|         288|   -5.795386|   -7.845495|    0.824028|    0.012017|
|         289|   -5.801754|   -7.850582|    0.824028|    0.012017|
|         290|   -5.807766|   -7.855888|    0.824028|    0.012017|
|         291|   -5.813375|   -7.861422|    0.824028|    0.012017|
|         292|   -5.818541|   -7.867189|    0.824028|    0.012016|
|         293|   -5.823236|   -7.873194|    0.824028|    0.012016|
|         294|   -5.827437|   -7.879435|    0.824028|    0.012016|
|         295|   -5.831132|   -7.885907|    0.824029|    0.012016|
|         296|   -5.834321|   -7.892604|    0.824029|    0.012016|
|         297|   -5.837009|   -7.899510|    0.824029|    0.012015|
|         298|   -5.839213|   -7.906609|    0.824029|    0.012015|
|         299|   -5.840955|   -7.913882|    0.824030|    0.012015|
|         300|   -5.842264|   -7.921304|    0.824030|    0.012015|
|         301|   -5.843172|   -7.928852|    0.824030|    0.012012|
+-----------------------------------------------------------------------+
|Fixed CL Mode                           |Value                         |
+-----------------------------------------------------------------------+
|Current CL                              |0.82403                       |
|Target CL                               |0.824                         |
|Previous AOA                            |2.78042                       |
|Changed AoA by                          |-0.000149212                  |
+-----------------------------------------------------------------------+
+----------------------------------------------------------------+
|  Inner_Iter|    rms[Rho]|     rms[nu]|          CL|          CD|
+----------------------------------------------------------------+
|         302|   -4.019483|   -7.858712|    0.824030|    0.012012|
|         303|   -4.403515|   -7.900969|    0.824031|    0.012012|
|         304|   -4.646787|   -7.919375|    0.824031|    0.012012|
|         305|   -4.725558|   -7.932891|    0.824031|    0.012012|
|         306|   -4.779365|   -7.944770|    0.824031|    0.012011|
|         307|   -4.849070|   -7.955752|    0.824032|    0.012011|
|         308|   -4.935107|   -7.966038|    0.824032|    0.012011|
|         309|   -5.024703|   -7.975722|    0.824032|    0.012011|
|         310|   -5.101331|   -7.984848|    0.824033|    0.012011|
|         311|   -5.156655|   -7.993395|    0.824033|    0.012011|
|         312|   -5.192439|   -8.001369|    0.824033|    0.012011|
|         313|   -5.212747|   -8.008875|    0.824034|    0.012010|
|         314|   -5.221603|   -8.016090|    0.824034|    0.012010|
|         315|   -5.224819|   -8.023153|    0.824034|    0.012010|
|         316|   -5.228794|   -8.030110|    0.824035|    0.012010|
|         317|   -5.237749|   -8.036941|    0.824035|    0.012010|
|         318|   -5.252599|   -8.043624|    0.824035|    0.012010|
|         319|   -5.271529|   -8.050175|    0.824036|    0.012010|
|         320|   -5.291469|   -8.056630|    0.824036|    0.012010|
|         321|   -5.309872|   -8.063016|    0.824037|    0.012010|
|         322|   -5.325927|   -8.069330|    0.824037|    0.012010|
|         323|   -5.340438|   -8.075534|    0.824037|    0.012010|
|         324|   -5.354717|   -8.081567|    0.824038|    0.012010|
|         325|   -5.369570|   -8.087382|    0.824038|    0.012010|
|         326|   -5.384975|   -8.092945|    0.824039|    0.012010|
|         327|   -5.400322|   -8.098245|    0.824039|    0.012010|
|         328|   -5.414807|   -8.103284|    0.824040|    0.012010|
|         329|   -5.427726|   -8.108079|    0.824040|    0.012010|
|         330|   -5.438608|   -8.112655|    0.824041|    0.012010|
|         331|   -5.447294|   -8.117041|    0.824041|    0.012010|
|         332|   -5.453990|   -8.121262|    0.824042|    0.012010|
|         333|   -5.459262|   -8.125346|    0.824042|    0.012010|
|         334|   -5.463923|   -8.129293|    0.824043|    0.012010|
|         335|   -5.468833|   -8.133104|    0.824043|    0.012010|
|         336|   -5.474699|   -8.136764|    0.824044|    0.012010|
|         337|   -5.481950|   -8.140253|    0.824044|    0.012010|
|         338|   -5.490685|   -8.143543|    0.824045|    0.012011|
|         339|   -5.500676|   -8.146607|    0.824045|    0.012011|
|         340|   -5.511413|   -8.149422|    0.824045|    0.012011|
|         341|   -5.522201|   -8.151967|    0.824046|    0.012011|
|         342|   -5.532294|   -8.154227|    0.824046|    0.012011|
|         343|   -5.541088|   -8.156197|    0.824046|    0.012011|
|         344|   -5.548288|   -8.157883|    0.824046|    0.012011|
|         345|   -5.553998|   -8.159293|    0.824047|    0.012011|
|         346|   -5.558668|   -8.160448|    0.824047|    0.012012|
|         347|   -5.562943|   -8.161367|    0.824047|    0.012012|
|         348|   -5.567477|   -8.162077|    0.824047|    0.012012|
|         349|   -5.572777|   -8.162604|    0.824047|    0.012012|
|         350|   -5.579123|   -8.162976|    0.824046|    0.012012|
|         351|   -5.586553|   -8.163227|    0.824046|    0.012012|
|         352|   -5.594902|   -8.163390|    0.824046|    0.012012|
|         353|   -5.603869|   -8.163502|    0.824045|    0.012013|
|         354|   -5.613103|   -8.163608|    0.824045|    0.012013|
|         355|   -5.622281|   -8.163744|    0.824044|    0.012013|
|         356|   -5.631172|   -8.163962|    0.824044|    0.012013|
|         357|   -5.639669|   -8.164311|    0.824043|    0.012013|
|         358|   -5.647790|   -8.164847|    0.824042|    0.012013|
|         359|   -5.655644|   -8.165624|    0.824041|    0.012013|
|         360|   -5.663391|   -8.166693|    0.824040|    0.012013|
|         361|   -5.671191|   -8.168103|    0.824039|    0.012013|
|         362|   -5.679177|   -8.169892|    0.824038|    0.012013|
|         363|   -5.687432|   -8.172090|    0.824037|    0.012013|
|         364|   -5.695989|   -8.174715|    0.824036|    0.012014|
|         365|   -5.704840|   -8.177773|    0.824035|    0.012014|
|         366|   -5.713949|   -8.181250|    0.824033|    0.012014|
|         367|   -5.723265|   -8.185112|    0.824032|    0.012014|
|         368|   -5.732736|   -8.189299|    0.824031|    0.012014|
|         369|   -5.742308|   -8.193729|    0.824029|    0.012014|
|         370|   -5.751933|   -8.198293|    0.824028|    0.012014|
|         371|   -5.761563|   -8.202856|    0.824026|    0.012014|
|         372|   -5.771142|   -8.207257|    0.824025|    0.012014|
|         373|   -5.780611|   -8.211314|    0.824024|    0.012014|
|         374|   -5.789897|   -8.214829|    0.824022|    0.012014|
|         375|   -5.798915|   -8.217602|    0.824021|    0.012014|
|         376|   -5.807574|   -8.219441|    0.824020|    0.012014|
|         377|   -5.815778|   -8.220179|    0.824019|    0.012014|
|         378|   -5.823432|   -8.219688|    0.824018|    0.012014|
|         379|   -5.830451|   -8.217895|    0.824017|    0.012014|
|         380|   -5.836759|   -8.214801|    0.824016|    0.012014|
|         381|   -5.842301|   -8.210454|    0.824015|    0.012014|
|         382|   -5.847042|   -8.204974|    0.824014|    0.012014|
|         383|   -5.850970|   -8.198510|    0.824014|    0.012014|
|         384|   -5.854095|   -8.191256|    0.824013|    0.012014|
|         385|   -5.856451|   -8.183432|    0.824012|    0.012013|
|         386|   -5.858093|   -8.175269|    0.824012|    0.012013|
|         387|   -5.859090|   -8.166994|    0.824012|    0.012013|
|         388|   -5.859528|   -8.158819|    0.824012|    0.012013|
|         389|   -5.859498|   -8.150937|    0.824011|    0.012013|
|         390|   -5.859098|   -8.143519|    0.824011|    0.012013|
|         391|   -5.858425|   -8.136706|    0.824011|    0.012013|
|         392|   -5.857575|   -8.130616|    0.824011|    0.012013|
|         393|   -5.856636|   -8.125344|    0.824012|    0.012013|
|         394|   -5.855690|   -8.120963|    0.824012|    0.012013|
|         395|   -5.854807|   -8.117524|    0.824012|    0.012013|
|         396|   -5.854049|   -8.115063|    0.824012|    0.012013|
|         397|   -5.853469|   -8.113601|    0.824013|    0.012013|
|         398|   -5.853107|   -8.113139|    0.824013|    0.012013|
|         399|   -5.852997|   -8.113669|    0.824014|    0.012013|
|         400|   -5.853162|   -8.115171|    0.824014|    0.012013|
|         401|   -5.853618|   -8.117611|    0.824015|    0.012012|
+-----------------------------------------------------------------------+
|Fixed CL Mode                           |Value                         |
+-----------------------------------------------------------------------+
|Current CL                              |0.824015                      |
|Target CL                               |0.824                         |
|Previous AOA                            |2.78027                       |
|Changed AoA by                          |-7.22072e-05                  |
+-----------------------------------------------------------------------+
+----------------------------------------------------------------+
|  Inner_Iter|    rms[Rho]|     rms[nu]|          CL|          CD|
+----------------------------------------------------------------+
|         402|   -4.334547|   -8.073602|    0.824016|    0.012011|
|         403|   -4.716772|   -8.099751|    0.824016|    0.012011|
|         404|   -4.954345|   -8.111669|    0.824017|    0.012011|
|         405|   -5.029463|   -8.121198|    0.824018|    0.012011|
|         406|   -5.081309|   -8.130171|    0.824018|    0.012011|
|         407|   -5.148620|   -8.138984|    0.824019|    0.012011|
|         408|   -5.231131|   -8.147745|    0.824020|    0.012011|
|         409|   -5.316507|   -8.156503|    0.824021|    0.012011|
|         410|   -5.389943|   -8.165254|    0.824021|    0.012011|
|         411|   -5.444657|   -8.173927|    0.824022|    0.012011|
|         412|   -5.482354|   -8.182434|    0.824023|    0.012011|
|         413|   -5.506054|   -8.190723|    0.824024|    0.012011|
|         414|   -5.518561|   -8.198773|    0.824024|    0.012011|
|         415|   -5.524683|   -8.206545|    0.824025|    0.012011|
|         416|   -5.530379|   -8.213963|    0.824026|    0.012010|
|         417|   -5.539948|   -8.220929|    0.824027|    0.012010|
|         418|   -5.554660|   -8.227370|    0.824027|    0.012010|
|         419|   -5.573198|   -8.233251|    0.824028|    0.012010|
|         420|   -5.593059|   -8.238575|    0.824028|    0.012010|
|         421|   -5.612181|   -8.243365|    0.824029|    0.012010|
|         422|   -5.629974|   -8.247644|    0.824030|    0.012010|
|         423|   -5.647164|   -8.251431|    0.824030|    0.012010|
|         424|   -5.664793|   -8.254740|    0.824031|    0.012010|
|         425|   -5.683327|   -8.257596|    0.824031|    0.012010|
|         426|   -5.702374|   -8.260051|    0.824032|    0.012010|
|         427|   -5.720941|   -8.262169|    0.824032|    0.012010|
|         428|   -5.737884|   -8.264024|    0.824032|    0.012010|
|         429|   -5.752293|   -8.265698|    0.824033|    0.012010|
|         430|   -5.763706|   -8.267272|    0.824033|    0.012010|
|         431|   -5.772178|   -8.268827|    0.824033|    0.012010|
|         432|   -5.778261|   -8.270434|    0.824033|    0.012010|
|         433|   -5.782874|   -8.272141|    0.824034|    0.012010|
|         434|   -5.787091|   -8.273988|    0.824034|    0.012010|
|         435|   -5.791889|   -8.275994|    0.824034|    0.012010|
|         436|   -5.797964|   -8.278161|    0.824034|    0.012010|
|         437|   -5.805628|   -8.280480|    0.824034|    0.012010|
|         438|   -5.814795|   -8.282929|    0.824034|    0.012010|
|         439|   -5.825020|   -8.285477|    0.824034|    0.012010|
|         440|   -5.835571|   -8.288089|    0.824034|    0.012010|
|         441|   -5.845555|   -8.290730|    0.824034|    0.012010|
|         442|   -5.854105|   -8.293364|    0.824034|    0.012010|
|         443|   -5.860594|   -8.295953|    0.824034|    0.012010|
|         444|   -5.864814|   -8.298467|    0.824034|    0.012010|
|         445|   -5.867026|   -8.300873|    0.824034|    0.012010|
|         446|   -5.867851|   -8.303140|    0.824034|    0.012010|
|         447|   -5.868062|   -8.305239|    0.824033|    0.012010|
|         448|   -5.868372|   -8.307140|    0.824033|    0.012010|
|         449|   -5.869293|   -8.308816|    0.824033|    0.012010|
|         450|   -5.871072|   -8.310238|    0.824033|    0.012010|
|         451|   -5.873710|   -8.311385|    0.824033|    0.012011|
|         452|   -5.877028|   -8.312231|    0.824032|    0.012011|
|         453|   -5.880742|   -8.312757|    0.824032|    0.012011|
|         454|   -5.884557|   -8.312951|    0.824032|    0.012011|
|         455|   -5.888234|   -8.312801|    0.824032|    0.012011|
|         456|   -5.891638|   -8.312303|    0.824031|    0.012011|
|         457|   -5.894749|   -8.311460|    0.824031|    0.012011|
|         458|   -5.897644|   -8.310285|    0.824031|    0.012011|
|         459|   -5.900464|   -8.308799|    0.824030|    0.012011|
|         460|   -5.903372|   -8.307031|    0.824030|    0.012011|
|         461|   -5.906516|   -8.305019|    0.824029|    0.012011|
|         462|   -5.910013|   -8.302811|    0.824029|    0.012011|
|         463|   -5.913938|   -8.300458|    0.824029|    0.012011|
|         464|   -5.918329|   -8.298020|    0.824028|    0.012011|
|         465|   -5.923195|   -8.295562|    0.824028|    0.012011|
|         466|   -5.928531|   -8.293155|    0.824027|    0.012011|
|         467|   -5.934328|   -8.290870|    0.824027|    0.012011|
|         468|   -5.940577|   -8.288777|    0.824026|    0.012011|
|         469|   -5.947277|   -8.286947|    0.824026|    0.012012|
|         470|   -5.954433|   -8.285446|    0.824025|    0.012012|
|         471|   -5.962052|   -8.284333|    0.824024|    0.012012|
|         472|   -5.970142|   -8.283659|    0.824024|    0.012012|
|         473|   -5.978707|   -8.283468|    0.824023|    0.012012|
|         474|   -5.987745|   -8.283790|    0.824023|    0.012012|
|         475|   -5.997249|   -8.284643|    0.824022|    0.012012|
|         476|   -6.007202|   -8.286030|    0.824022|    0.012012|
|         477|   -6.017579|   -8.287939|    0.824021|    0.012012|
|         478|   -6.028350|   -8.290343|    0.824021|    0.012012|
|         479|   -6.039477|   -8.293194|    0.824020|    0.012012|
|         480|   -6.050916|   -8.296429|    0.824020|    0.012012|
|         481|   -6.062616|   -8.299965|    0.824019|    0.012012|
|         482|   -6.074519|   -8.303705|    0.824019|    0.012012|
|         483|   -6.086562|   -8.307539|    0.824018|    0.012012|
|         484|   -6.098671|   -8.311346|    0.824018|    0.012012|
|         485|   -6.110767|   -8.315000|    0.824017|    0.012012|
|         486|   -6.122765|   -8.318377|    0.824017|    0.012012|
|         487|   -6.134572|   -8.321359|    0.824017|    0.012012|
|         488|   -6.146090|   -8.323847|    0.824016|    0.012012|
|         489|   -6.157219|   -8.325763|    0.824016|    0.012011|
|         490|   -6.167859|   -8.327060|    0.824016|    0.012011|
|         491|   -6.177909|   -8.327724|    0.824016|    0.012011|
|         492|   -6.187277|   -8.327775|    0.824016|    0.012011|
|         493|   -6.195879|   -8.327268|    0.824015|    0.012011|
|         494|   -6.203640|   -8.326288|    0.824015|    0.012011|
|         495|   -6.210506|   -8.324944|    0.824015|    0.012011|
|         496|   -6.216436|   -8.323361|    0.824015|    0.012011|
|         497|   -6.221412|   -8.321673|    0.824015|    0.012011|
|         498|   -6.225437|   -8.320016|    0.824015|    0.012011|
|         499|   -6.228534|   -8.318520|    0.824015|    0.012011|
|         500|   -6.230747|   -8.317306|    0.824015|    0.012011|
|         501|   -6.232136|   -8.316480|    0.824015|    0.012010|
+-----------------------------------------------------------------------+
|Fixed CL Mode                           |Value                         |
+-----------------------------------------------------------------------+
|Current CL                              |0.824015                      |
|Target CL                               |0.824                         |
|Previous AOA                            |2.7802                        |
|Changed AoA by                          |-7.68421e-05                  |
+-----------------------------------------------------------------------+
+----------------------------------------------------------------+
|  Inner_Iter|    rms[Rho]|     rms[nu]|          CL|          CD|
+----------------------------------------------------------------+
|         502|   -4.307805|   -8.206274|    0.824016|    0.012010|
|         503|   -4.691868|   -8.255422|    0.824016|    0.012009|
|         504|   -4.933988|   -8.272660|    0.824016|    0.012009|
|         505|   -5.011167|   -8.283333|    0.824016|    0.012009|
|         506|   -5.063917|   -8.291956|    0.824016|    0.012009|
|         507|   -5.132831|   -8.299639|    0.824016|    0.012009|
|         508|   -5.218311|   -8.306763|    0.824017|    0.012009|
|         509|   -5.308018|   -8.313564|    0.824017|    0.012009|
|         510|   -5.386119|   -8.320172|    0.824017|    0.012009|
|         511|   -5.444428|   -8.326585|    0.824017|    0.012009|
|         512|   -5.484050|   -8.332777|    0.824017|    0.012009|
|         513|   -5.508101|   -8.338809|    0.824018|    0.012009|
|         514|   -5.519844|   -8.344796|    0.824018|    0.012009|
|         515|   -5.524883|   -8.350793|    0.824018|    0.012009|
|         516|   -5.529945|   -8.356751|    0.824018|    0.012009|
|         517|   -5.539724|   -8.362542|    0.824018|    0.012009|
|         518|   -5.555486|   -8.368060|    0.824019|    0.012009|
|         519|   -5.575622|   -8.373253|    0.824019|    0.012008|
|         520|   -5.597158|   -8.378115|    0.824019|    0.012008|
|         521|   -5.617593|   -8.382642|    0.824019|    0.012008|
|         522|   -5.636157|   -8.386800|    0.824019|    0.012008|
|         523|   -5.653711|   -8.390529|    0.824019|    0.012008|
|         524|   -5.671601|   -8.393760|    0.824019|    0.012008|
|         525|   -5.690572|   -8.396434|    0.824020|    0.012008|
|         526|   -5.710410|   -8.398516|    0.824020|    0.012008|
|         527|   -5.730180|   -8.400039|    0.824020|    0.012008|
|         528|   -5.748698|   -8.401051|    0.824020|    0.012008|
|         529|   -5.764922|   -8.401624|    0.824020|    0.012008|
|         530|   -5.778189|   -8.401842|    0.824020|    0.012008|
|         531|   -5.788352|   -8.401806|    0.824020|    0.012008|
|         532|   -5.795829|   -8.401594|    0.824020|    0.012008|
|         533|   -5.801540|   -8.401274|    0.824020|    0.012008|
|         534|   -5.806689|   -8.400900|    0.824020|    0.012009|
|         535|   -5.812470|   -8.400499|    0.824020|    0.012009|
|         536|   -5.819819|   -8.400081|    0.824019|    0.012009|
|         537|   -5.829268|   -8.399640|    0.824019|    0.012009|
|         538|   -5.840904|   -8.399158|    0.824019|    0.012009|
|         539|   -5.854373|   -8.398604|    0.824019|    0.012009|
|         540|   -5.868929|   -8.397951|    0.824019|    0.012009|
|         541|   -5.883530|   -8.397166|    0.824019|    0.012009|
|         542|   -5.897030|   -8.396222|    0.824019|    0.012009|
|         543|   -5.908456|   -8.395098|    0.824018|    0.012009|
|         544|   -5.917298|   -8.393779|    0.824018|    0.012009|
|         545|   -5.923674|   -8.392253|    0.824018|    0.012009|
|         546|   -5.928266|   -8.390511|    0.824018|    0.012009|
|         547|   -5.932065|   -8.388546|    0.824017|    0.012009|
|         548|   -5.936063|   -8.386353|    0.824017|    0.012009|
|         549|   -5.941021|   -8.383924|    0.824017|    0.012009|
|         550|   -5.947356|   -8.381256|    0.824017|    0.012009|
|         551|   -5.955123|   -8.378342|    0.824016|    0.012009|
|         552|   -5.964084|   -8.375184|    0.824016|    0.012010|
|         553|   -5.973802|   -8.371773|    0.824015|    0.012010|
|         554|   -5.983760|   -8.368128|    0.824015|    0.012010|
|         555|   -5.993478|   -8.364248|    0.824015|    0.012010|
|         556|   -6.002614|   -8.360148|    0.824014|    0.012010|
|         557|   -6.011014|   -8.355847|    0.824014|    0.012010|
|         558|   -6.018711|   -8.351377|    0.824013|    0.012010|
|         559|   -6.025883|   -8.346776|    0.824013|    0.012010|
|         560|   -6.032780|   -8.342088|    0.824012|    0.012010|
|         561|   -6.039656|   -8.337366|    0.824012|    0.012010|
|         562|   -6.046717|   -8.332668|    0.824011|    0.012010|
|         563|   -6.054101|   -8.328055|    0.824010|    0.012010|
|         564|   -6.061873|   -8.323588|    0.824010|    0.012010|
|         565|   -6.070042|   -8.319332|    0.824009|    0.012010|
|         566|   -6.078581|   -8.315348|    0.824009|    0.012011|
|         567|   -6.087452|   -8.311695|    0.824008|    0.012011|
|         568|   -6.096618|   -8.308424|    0.824007|    0.012011|
|         569|   -6.106052|   -8.305581|    0.824007|    0.012011|
|         570|   -6.115740|   -8.303202|    0.824006|    0.012011|
|         571|   -6.125676|   -8.301312|    0.824005|    0.012011|
|         572|   -6.135856|   -8.299927|    0.824005|    0.012011|
|         573|   -6.146268|   -8.299049|    0.824004|    0.012011|
|         574|   -6.156889|   -8.298668|    0.824003|    0.012011|
|         575|   -6.167683|   -8.298761|    0.824003|    0.012011|
|         576|   -6.178601|   -8.299289|    0.824002|    0.012011|
|         577|   -6.189581|   -8.300203|    0.824001|    0.012011|
|         578|   -6.200551|   -8.301442|    0.824001|    0.012011|
|         579|   -6.211436|   -8.302933|    0.824000|    0.012011|
|         580|   -6.222157|   -8.304595|    0.824000|    0.012011|
|         581|   -6.232637|   -8.306342|    0.823999|    0.012011|
|         582|   -6.242802|   -8.308084|    0.823999|    0.012011|
|         583|   -6.252585|   -8.309734|    0.823999|    0.012011|
|         584|   -6.261923|   -8.311210|    0.823998|    0.012011|
|         585|   -6.270767|   -8.312439|    0.823998|    0.012011|
|         586|   -6.279076|   -8.313362|    0.823998|    0.012011|
|         587|   -6.286824|   -8.313936|    0.823998|    0.012011|
|         588|   -6.293995|   -8.314139|    0.823998|    0.012011|
|         589|   -6.300591|   -8.313967|    0.823997|    0.012011|
|         590|   -6.306621|   -8.313438|    0.823997|    0.012011|
|         591|   -6.312107|   -8.312588|    0.823997|    0.012011|
|         592|   -6.317081|   -8.311467|    0.823997|    0.012011|
|         593|   -6.321576|   -8.310139|    0.823997|    0.012011|
|         594|   -6.325632|   -8.308675|    0.823998|    0.012011|
|         595|   -6.329286|   -8.307150|    0.823998|    0.012011|
|         596|   -6.332573|   -8.305639|    0.823998|    0.012011|
|         597|   -6.335524|   -8.304212|    0.823998|    0.012011|
|         598|   -6.338167|   -8.302933|    0.823998|    0.012011|
|         599|   -6.340520|   -8.301857|    0.823998|    0.012011|
|         600|   -6.342599|   -8.301028|    0.823999|    0.012011|
|         601|   -6.344412|   -8.300476|    0.823999|    0.012011|
+-----------------------------------------------------------------------+
|Fixed CL Mode                           |Value                         |
+-----------------------------------------------------------------------+
|Current CL                              |0.823999                      |
|Target CL                               |0.824                         |
|Previous AOA                            |2.78012                       |
|Changed AoA by                          |6.40314e-06                   |
+-----------------------------------------------------------------------+
+----------------------------------------------------------------+
|  Inner_Iter|    rms[Rho]|     rms[nu]|          CL|          CD|
+----------------------------------------------------------------+
|         602|   -5.384010|   -8.299391|    0.823999|    0.012011|
|         603|   -5.760182|   -8.299882|    0.824000|    0.012011|
|         604|   -5.993504|   -8.300330|    0.824000|    0.012011|
|         605|   -6.069312|   -8.300993|    0.824000|    0.012011|
|         606|   -6.114624|   -8.301890|    0.824001|    0.012011|
|         607|   -6.164117|   -8.302995|    0.824001|    0.012011|
|         608|   -6.214305|   -8.304267|    0.824001|    0.012011|
|         609|   -6.253023|   -8.305656|    0.824002|    0.012011|
|         610|   -6.273952|   -8.307110|    0.824002|    0.012011|
|         611|   -6.281088|   -8.308576|    0.824002|    0.012010|
|         612|   -6.281187|   -8.310004|    0.824003|    0.012010|
|         613|   -6.278412|   -8.311351|    0.824003|    0.012010|
|         614|   -6.274852|   -8.312581|    0.824003|    0.012010|
|         615|   -6.271986|   -8.313670|    0.824004|    0.012010|
|         616|   -6.270923|   -8.314600|    0.824004|    0.012010|
|         617|   -6.272068|   -8.315367|    0.824004|    0.012010|
|         618|   -6.274990|   -8.315977|    0.824005|    0.012010|
|         619|   -6.278695|   -8.316447|    0.824005|    0.012010|
|         620|   -6.282149|   -8.316804|    0.824005|    0.012010|
|         621|   -6.284725|   -8.317083|    0.824005|    0.012010|
|         622|   -6.286367|   -8.317326|    0.824006|    0.012010|
|         623|   -6.287427|   -8.317579|    0.824006|    0.012010|
|         624|   -6.288386|   -8.317888|    0.824006|    0.012010|
|         625|   -6.289638|   -8.318300|    0.824006|    0.012010|
|         626|   -6.291421|   -8.318861|    0.824006|    0.012010|
|         627|   -6.293837|   -8.319611|    0.824006|    0.012010|
|         628|   -6.296891|   -8.320588|    0.824006|    0.012009|
|         629|   -6.300524|   -8.321821|    0.824007|    0.012009|
|         630|   -6.304638|   -8.323333|    0.824007|    0.012009|
|         631|   -6.309115|   -8.325141|    0.824007|    0.012009|
|         632|   -6.313855|   -8.327253|    0.824007|    0.012009|
|         633|   -6.318800|   -8.329673|    0.824007|    0.012009|
|         634|   -6.323947|   -8.332393|    0.824007|    0.012009|
|         635|   -6.329342|   -8.335405|    0.824007|    0.012009|
|         636|   -6.335059|   -8.338689|    0.824007|    0.012009|
|         637|   -6.341173|   -8.342224|    0.824007|    0.012009|
|         638|   -6.347737|   -8.345982|    0.824007|    0.012009|
|         639|   -6.354773|   -8.349933|    0.824006|    0.012009|
|         640|   -6.362254|   -8.354045|    0.824006|    0.012009|
|         641|   -6.370115|   -8.358282|    0.824006|    0.012009|
|         642|   -6.378260|   -8.362611|    0.824006|    0.012009|
|         643|   -6.386578|   -8.366999|    0.824006|    0.012009|
|         644|   -6.394962|   -8.371415|    0.824006|    0.012009|
|         645|   -6.403322|   -8.375831|    0.824006|    0.012009|
|         646|   -6.411590|   -8.380224|    0.824006|    0.012009|
|         647|   -6.419719|   -8.384574|    0.824006|    0.012009|
|         648|   -6.427670|   -8.388867|    0.824006|    0.012009|
|         649|   -6.435403|   -8.393094|    0.824006|    0.012009|
|         650|   -6.442865|   -8.397249|    0.824006|    0.012009|
|         651|   -6.449991|   -8.401331|    0.824006|    0.012009|
|         652|   -6.456703|   -8.405340|    0.824006|    0.012009|
|         653|   -6.462916|   -8.409279|    0.824006|    0.012010|
|         654|   -6.468553|   -8.413151|    0.824006|    0.012010|
|         655|   -6.473551|   -8.416956|    0.824006|    0.012010|
|         656|   -6.477871|   -8.420694|    0.824006|    0.012010|
|         657|   -6.481500|   -8.424364|    0.824006|    0.012010|
|         658|   -6.484451|   -8.427957|    0.824006|    0.012010|
|         659|   -6.486757|   -8.431464|    0.824006|    0.012010|
|         660|   -6.488469|   -8.434869|    0.824006|    0.012010|
|         661|   -6.489647|   -8.438153|    0.824006|    0.012010|
|         662|   -6.490355|   -8.441294|    0.824006|    0.012010|
|         663|   -6.490658|   -8.444266|    0.824006|    0.012010|
|         664|   -6.490620|   -8.447043|    0.824007|    0.012010|
|         665|   -6.490302|   -8.449599|    0.824007|    0.012010|
|         666|   -6.489763|   -8.451909|    0.824007|    0.012011|
|         667|   -6.489058|   -8.453953|    0.824007|    0.012011|
|         668|   -6.488239|   -8.455716|    0.824007|    0.012011|
|         669|   -6.487353|   -8.457189|    0.824007|    0.012011|
|         670|   -6.486446|   -8.458371|    0.824007|    0.012011|
|         671|   -6.485556|   -8.459271|    0.824007|    0.012011|
|         672|   -6.484720|   -8.459904|    0.824007|    0.012011|
|         673|   -6.483969|   -8.460296|    0.824007|    0.012011|
|         674|   -6.483328|   -8.460477|    0.824007|    0.012011|
|         675|   -6.482822|   -8.460486|    0.824007|    0.012011|
|         676|   -6.482471|   -8.460364|    0.824007|    0.012011|
|         677|   -6.482291|   -8.460156|    0.824007|    0.012012|
|         678|   -6.482297|   -8.459909|    0.824007|    0.012012|
|         679|   -6.482502|   -8.459665|    0.824007|    0.012012|
|         680|   -6.482916|   -8.459467|    0.824007|    0.012012|
|         681|   -6.483550|   -8.459352|    0.824007|    0.012012|
|         682|   -6.484411|   -8.459352|    0.824007|    0.012012|
|         683|   -6.485507|   -8.459492|    0.824007|    0.012012|
|         684|   -6.486843|   -8.459790|    0.824007|    0.012012|
|         685|   -6.488427|   -8.460258|    0.824007|    0.012012|
|         686|   -6.490262|   -8.460899|    0.824007|    0.012012|
|         687|   -6.492353|   -8.461711|    0.824006|    0.012012|
|         688|   -6.494706|   -8.462683|    0.824006|    0.012012|
|         689|   -6.497323|   -8.463799|    0.824006|    0.012012|
|         690|   -6.500208|   -8.465039|    0.824006|    0.012012|
|         691|   -6.503366|   -8.466377|    0.824006|    0.012012|
|         692|   -6.506799|   -8.467786|    0.824006|    0.012012|
|         693|   -6.510510|   -8.469236|    0.824006|    0.012012|
|         694|   -6.514501|   -8.470698|    0.824005|    0.012012|
|         695|   -6.518774|   -8.472144|    0.824005|    0.012012|
|         696|   -6.523329|   -8.473547|    0.824005|    0.012012|
|         697|   -6.528165|   -8.474886|    0.824005|    0.012012|
|         698|   -6.533280|   -8.476142|    0.824005|    0.012012|
|         699|   -6.538671|   -8.477303|    0.824005|    0.012012|
|         700|   -6.544329|   -8.478361|    0.824004|    0.012012|
|         701|   -6.550248|   -8.479315|    0.824004|    0.012012|
+-----------------------------------------------------------------------+
|Fixed CL Mode                           |Value                         |
+-----------------------------------------------------------------------+
|Current CL                              |0.824004                      |
|Target CL                               |0.824                         |
|Previous AOA                            |2.78013                       |
|Changed AoA by                          |-2.20839e-05                  |
+-----------------------------------------------------------------------+
+----------------------------------------------------------------+
|  Inner_Iter|    rms[Rho]|     rms[nu]|          CL|          CD|
+----------------------------------------------------------------+
|         702|   -4.849381|   -8.456904|    0.824004|    0.012012|
|         703|   -5.234112|   -8.469250|    0.824004|    0.012012|
|         704|   -5.478039|   -8.473295|    0.824004|    0.012012|
|         705|   -5.555897|   -8.475702|    0.824004|    0.012012|
|         706|   -5.608545|   -8.477534|    0.824004|    0.012012|
|         707|   -5.677203|   -8.479039|    0.824004|    0.012012|
|         708|   -5.762261|   -8.480304|    0.824003|    0.012012|
|         709|   -5.851088|   -8.481389|    0.824003|    0.012012|
|         710|   -5.927558|   -8.482338|    0.824003|    0.012012|
|         711|   -5.983586|   -8.483183|    0.824003|    0.012012|
|         712|   -6.020733|   -8.483957|    0.824003|    0.012012|
|         713|   -6.042644|   -8.484711|    0.824003|    0.012012|
|         714|   -6.052964|   -8.485506|    0.824003|    0.012012|
|         715|   -6.057320|   -8.486383|    0.824003|    0.012012|
|         716|   -6.062152|   -8.487365|    0.824003|    0.012012|
|         717|   -6.071825|   -8.488458|    0.824003|    0.012012|
|         718|   -6.087383|   -8.489666|    0.824003|    0.012012|
|         719|   -6.107083|   -8.490995|    0.824003|    0.012012|
|         720|   -6.127875|   -8.492453|    0.824003|    0.012012|
|         721|   -6.147199|   -8.494046|    0.824003|    0.012012|
|         722|   -6.164244|   -8.495768|    0.824003|    0.012011|
|         723|   -6.179840|   -8.497609|    0.824002|    0.012011|
|         724|   -6.195337|   -8.499553|    0.824002|    0.012011|
|         725|   -6.211547|   -8.501586|    0.824002|    0.012011|
|         726|   -6.228406|   -8.503691|    0.824002|    0.012011|
|         727|   -6.245213|   -8.505860|    0.824002|    0.012011|
|         728|   -6.261050|   -8.508083|    0.824002|    0.012011|
|         729|   -6.275112|   -8.510359|    0.824002|    0.012011|
|         730|   -6.286877|   -8.512682|    0.824002|    0.012011|
|         731|   -6.296199|   -8.515048|    0.824002|    0.012011|
|         732|   -6.303367|   -8.517455|    0.824002|    0.012011|
|         733|   -6.309085|   -8.519900|    0.824003|    0.012011|
|         734|   -6.314318|   -8.522383|    0.824003|    0.012011|
|         735|   -6.320069|   -8.524900|    0.824003|    0.012011|
|         736|   -6.327156|   -8.527449|    0.824003|    0.012011|
|         737|   -6.336081|   -8.530028|    0.824003|    0.012011|
|         738|   -6.346970|   -8.532631|    0.824003|    0.012011|
|         739|   -6.359575|   -8.535256|    0.824003|    0.012011|
|         740|   -6.373314|   -8.537899|    0.824003|    0.012011|
|         741|   -6.387354|   -8.540557|    0.824003|    0.012011|
|         742|   -6.400759|   -8.543228|    0.824003|    0.012011|
|         743|   -6.412717|   -8.545913|    0.824003|    0.012011|
|         744|   -6.422765|   -8.548610|    0.824003|    0.012011|
|         745|   -6.430933|   -8.551322|    0.824003|    0.012010|
|         746|   -6.437719|   -8.554050|    0.824003|    0.012010|
|         747|   -6.443903|   -8.556797|    0.824003|    0.012010|
|         748|   -6.450312|   -8.559564|    0.824003|    0.012010|
|         749|   -6.457612|   -8.562355|    0.824003|    0.012010|
|         750|   -6.466190|   -8.565172|    0.824003|    0.012010|
|         751|   -6.476130|   -8.568019|    0.824003|    0.012010|
|         752|   -6.487241|   -8.570896|    0.824003|    0.012010|
|         753|   -6.499139|   -8.573815|    0.824003|    0.012010|
|         754|   -6.511342|   -8.576781|    0.824003|    0.012010|
|         755|   -6.523379|   -8.579800|    0.824003|    0.012010|
|         756|   -6.534879|   -8.582881|    0.824003|    0.012010|
|         757|   -6.545635|   -8.586033|    0.824003|    0.012010|
|         758|   -6.555613|   -8.589271|    0.824003|    0.012010|
|         759|   -6.564921|   -8.592611|    0.824003|    0.012010|
|         760|   -6.573751|   -8.596073|    0.824003|    0.012010|
|         761|   -6.582311|   -8.599676|    0.824003|    0.012010|
|         762|   -6.590776|   -8.603443|    0.824003|    0.012010|
|         763|   -6.599258|   -8.607399|    0.824003|    0.012010|
|         764|   -6.607805|   -8.611566|    0.824003|    0.012010|
|         765|   -6.616409|   -8.615969|    0.824003|    0.012010|
|         766|   -6.625029|   -8.620629|    0.824003|    0.012010|
|         767|   -6.633612|   -8.625567|    0.824003|    0.012010|
|         768|   -6.642109|   -8.630798|    0.824003|    0.012010|
|         769|   -6.650486|   -8.636334|    0.824002|    0.012010|
|         770|   -6.658724|   -8.642181|    0.824002|    0.012010|
|         771|   -6.666814|   -8.648336|    0.824002|    0.012010|
|         772|   -6.674753|   -8.654791|    0.824002|    0.012010|
|         773|   -6.682534|   -8.661526|    0.824002|    0.012010|
|         774|   -6.690143|   -8.668515|    0.824002|    0.012010|
|         775|   -6.697557|   -8.675718|    0.824002|    0.012011|
|         776|   -6.704746|   -8.683089|    0.824002|    0.012011|
|         777|   -6.711672|   -8.690572|    0.824002|    0.012011|
|         778|   -6.718297|   -8.698102|    0.824002|    0.012011|
|         779|   -6.724584|   -8.705609|    0.824002|    0.012011|
|         780|   -6.730500|   -8.713022|    0.824002|    0.012011|
|         781|   -6.736019|   -8.720268|    0.824002|    0.012011|
|         782|   -6.741121|   -8.727274|    0.824002|    0.012011|
|         783|   -6.745796|   -8.733978|    0.824002|    0.012011|
|         784|   -6.750040|   -8.740323|    0.824002|    0.012011|
|         785|   -6.753860|   -8.746267|    0.824002|    0.012011|
|         786|   -6.757268|   -8.751783|    0.824002|    0.012011|
|         787|   -6.760287|   -8.756860|    0.824002|    0.012011|
|         788|   -6.762945|   -8.761505|    0.824002|    0.012011|
|         789|   -6.765277|   -8.765740|    0.824002|    0.012011|
|         790|   -6.767322|   -8.769600|    0.824002|    0.012011|
|         791|   -6.769125|   -8.773133|    0.824002|    0.012011|
|         792|   -6.770731|   -8.776394|    0.824002|    0.012011|
|         793|   -6.772183|   -8.779444|    0.824002|    0.012011|
|         794|   -6.773525|   -8.782343|    0.824002|    0.012011|
|         795|   -6.774797|   -8.785151|    0.824003|    0.012011|
|         796|   -6.776034|   -8.787920|    0.824003|    0.012011|
|         797|   -6.777265|   -8.790699|    0.824003|    0.012011|
|         798|   -6.778512|   -8.793524|    0.824003|    0.012011|
|         799|   -6.779792|   -8.796424|    0.824003|    0.012012|
|         800|   -6.781114|   -8.799417|    0.824003|    0.012012|
|         801|   -6.782479|   -8.802511|    0.824003|    0.012011|
+-----------------------------------------------------------------------+
|Fixed CL Mode                           |Value                         |
+-----------------------------------------------------------------------+
|Current CL                              |0.824003                      |
|Target CL                               |0.824                         |
|Previous AOA                            |2.7801                        |
|Changed AoA by                          |-1.55866e-05                  |
+-----------------------------------------------------------------------+
+----------------------------------------------------------------+
|  Inner_Iter|    rms[Rho]|     rms[nu]|          CL|          CD|
+----------------------------------------------------------------+
|         802|   -5.000642|   -8.756444|    0.824003|    0.012011|
|         803|   -5.385089|   -8.783131|    0.824003|    0.012011|
|         804|   -5.628796|   -8.793572|    0.824004|    0.012011|
|         805|   -5.707087|   -8.800813|    0.824004|    0.012012|
|         806|   -5.760196|   -8.806962|    0.824004|    0.012012|
|         807|   -5.829174|   -8.812484|    0.824004|    0.012012|
|         808|   -5.914408|   -8.817484|    0.824004|    0.012012|
|         809|   -6.003221|   -8.822014|    0.824004|    0.012012|
|         810|   -6.079467|   -8.826109|    0.824004|    0.012012|
|         811|   -6.135173|   -8.829775|    0.824004|    0.012012|
|         812|   -6.172060|   -8.833035|    0.824004|    0.012012|
|         813|   -6.193819|   -8.835983|    0.824005|    0.012012|
|         814|   -6.204042|   -8.838732|    0.824005|    0.012012|
|         815|   -6.208282|   -8.841384|    0.824005|    0.012012|
|         816|   -6.212941|   -8.843992|    0.824005|    0.012012|
|         817|   -6.222379|   -8.846577|    0.824005|    0.012012|
|         818|   -6.237661|   -8.849163|    0.824005|    0.012012|
|         819|   -6.257093|   -8.851784|    0.824005|    0.012012|
|         820|   -6.277692|   -8.854483|    0.824005|    0.012012|
|         821|   -6.296970|   -8.857298|    0.824005|    0.012012|
|         822|   -6.314144|   -8.860245|    0.824005|    0.012012|
|         823|   -6.330017|   -8.863327|    0.824005|    0.012012|
|         824|   -6.345860|   -8.866538|    0.824005|    0.012012|
|         825|   -6.362383|   -8.869861|    0.824005|    0.012012|
|         826|   -6.379404|   -8.873296|    0.824005|    0.012012|
|         827|   -6.396098|   -8.876850|    0.824005|    0.012012|
|         828|   -6.411447|   -8.880533|    0.824005|    0.012012|
|         829|   -6.424592|   -8.884345|    0.824005|    0.012012|
|         830|   -6.435033|   -8.888324|    0.824005|    0.012012|
|         831|   -6.442714|   -8.892465|    0.824005|    0.012011|
|         832|   -6.448052|   -8.896771|    0.824005|    0.012011|
|         833|   -6.451862|   -8.901242|    0.824005|    0.012011|
|         834|   -6.455176|   -8.905872|    0.824005|    0.012011|
|         835|   -6.458993|   -8.910648|    0.824005|    0.012011|
|         836|   -6.464081|   -8.915551|    0.824005|    0.012011|
|         837|   -6.470856|   -8.920554|    0.824005|    0.012011|
|         838|   -6.479360|   -8.925630|    0.824005|    0.012011|
|         839|   -6.489282|   -8.930750|    0.824005|    0.012011|
|         840|   -6.500020|   -8.935887|    0.824005|    0.012011|
|         841|   -6.510789|   -8.941021|    0.824005|    0.012011|
|         842|   -6.520772|   -8.946133|    0.824004|    0.012011|
|         843|   -6.529324|   -8.951213|    0.824004|    0.012011|
|         844|   -6.536152|   -8.956255|    0.824004|    0.012011|
|         845|   -6.541387|   -8.961262|    0.824004|    0.012011|
|         846|   -6.545530|   -8.966240|    0.824004|    0.012011|
|         847|   -6.549274|   -8.971198|    0.824004|    0.012011|
|         848|   -6.553303|   -8.976146|    0.824004|    0.012011|
|         849|   -6.558134|   -8.981093|    0.824004|    0.012011|
|         850|   -6.564035|   -8.986047|    0.824004|    0.012011|
|         851|   -6.571019|   -8.991011|    0.824004|    0.012011|
|         852|   -6.578882|   -8.995975|    0.824004|    0.012011|
|         853|   -6.587281|   -9.000959|    0.824004|    0.012011|
|         854|   -6.595819|   -9.005944|    0.824004|    0.012011|
|         855|   -6.604131|   -9.010916|    0.824003|    0.012011|
|         856|   -6.611948|   -9.015837|    0.824003|    0.012011|
|         857|   -6.619133|   -9.020676|    0.824003|    0.012011|
|         858|   -6.625677|   -9.025401|    0.824003|    0.012011|
|         859|   -6.631663|   -9.029978|    0.824003|    0.012011|
|         860|   -6.637225|   -9.034372|    0.824003|    0.012011|
|         861|   -6.642495|   -9.038549|    0.824003|    0.012011|
|         862|   -6.647573|   -9.042475|    0.824003|    0.012011|
|         863|   -6.652512|   -9.046131|    0.824003|    0.012011|
|         864|   -6.657316|   -9.049499|    0.824003|    0.012011|
|         865|   -6.661955|   -9.052574|    0.824003|    0.012011|
|         866|   -6.666381|   -9.055365|    0.824003|    0.012011|
|         867|   -6.670542|   -9.057893|    0.824002|    0.012011|
|         868|   -6.674395|   -9.060194|    0.824002|    0.012011|
|         869|   -6.677910|   -9.062315|    0.824002|    0.012011|
|         870|   -6.681072|   -9.064314|    0.824002|    0.012011|
|         871|   -6.683880|   -9.066251|    0.824002|    0.012011|
|         872|   -6.686338|   -9.068193|    0.824002|    0.012011|
|         873|   -6.688454|   -9.070207|    0.824002|    0.012011|
|         874|   -6.690238|   -9.072354|    0.824002|    0.012011|
|         875|   -6.691702|   -9.074689|    0.824002|    0.012011|
|         876|   -6.692858|   -9.077254|    0.824002|    0.012011|
|         877|   -6.693721|   -9.080088|    0.824002|    0.012011|
|         878|   -6.694311|   -9.083202|    0.824002|    0.012011|
|         879|   -6.694650|   -9.086602|    0.824002|    0.012011|
|         880|   -6.694769|   -9.090273|    0.824002|    0.012011|
|         881|   -6.694699|   -9.094181|    0.824002|    0.012011|
|         882|   -6.694476|   -9.098276|    0.824002|    0.012011|
|         883|   -6.694140|   -9.102493|    0.824002|    0.012011|
|         884|   -6.693728|   -9.106755|    0.824002|    0.012011|
|         885|   -6.693279|   -9.110971|    0.824002|    0.012011|
|         886|   -6.692832|   -9.115048|    0.824002|    0.012011|
|         887|   -6.692423|   -9.118890|    0.824002|    0.012011|
|         888|   -6.692085|   -9.122404|    0.824002|    0.012011|
|         889|   -6.691851|   -9.125510|    0.824002|    0.012011|
|         890|   -6.691747|   -9.128141|    0.824002|    0.012011|
|         891|   -6.691799|   -9.130252|    0.824002|    0.012011|
|         892|   -6.692030|   -9.131819|    0.824002|    0.012011|
|         893|   -6.692456|   -9.132846|    0.824002|    0.012011|
|         894|   -6.693092|   -9.133358|    0.824002|    0.012011|
|         895|   -6.693950|   -9.133402|    0.824002|    0.012011|
|         896|   -6.695036|   -9.133041|    0.824002|    0.012011|
|         897|   -6.696354|   -9.132352|    0.824002|    0.012011|
|         898|   -6.697905|   -9.131413|    0.824002|    0.012011|
|         899|   -6.699687|   -9.130305|    0.824002|    0.012011|
|         900|   -6.701692|   -9.129101|    0.824003|    0.012011|
|         901|   -6.703914|   -9.127865|    0.824003|    0.012011|
+-----------------------------------------------------------------------+
|Fixed CL Mode                           |Value                         |
+-----------------------------------------------------------------------+
|Current CL                              |0.824003                      |
|Target CL                               |0.824                         |
|Previous AOA                            |2.78009                       |
[...]
|        5298|   -6.044480|   -7.941230|    0.824238|    0.012015|
|        5299|   -6.051343|   -7.944887|    0.824238|    0.012015|
|        5300|   -6.057783|   -7.948573|    0.824238|    0.012015|
|        5301|   -6.063760|   -7.952302|    0.824238|    0.012015|
|        5302|   -6.069248|   -7.956082|    0.824238|    0.012015|
|        5303|   -6.074234|   -7.959923|    0.824238|    0.012015|
|        5304|   -6.078716|   -7.963830|    0.824239|    0.012015|
|        5305|   -6.082706|   -7.967807|    0.824239|    0.012015|
|        5306|   -6.086229|   -7.971852|    0.824239|    0.012015|
|        5307|   -6.089318|   -7.975965|    0.824239|    0.012015|
|        5308|   -6.092019|   -7.980146|    0.824239|    0.012015|
|        5309|   -6.094381|   -7.984393|    0.824239|    0.012015|
|        5310|   -6.096466|   -7.988704|    0.824239|    0.012015|
|        5311|   -6.098333|   -7.993082|    0.824239|    0.012015|
|        5312|   -6.100041|   -7.997525|    0.824239|    0.012015|
|        5313|   -6.101650|   -8.002037|    0.824239|    0.012015|
|        5314|   -6.103218|   -8.006620|    0.824240|    0.012015|
|        5315|   -6.104799|   -8.011279|    0.824240|    0.012015|
|        5316|   -6.106444|   -8.016018|    0.824240|    0.012015|
|        5317|   -6.108197|   -8.020843|    0.824240|    0.012015|
|        5318|   -6.110096|   -8.025761|    0.824240|    0.012015|
|        5319|   -6.112174|   -8.030778|    0.824240|    0.012015|
|        5320|   -6.114457|   -8.035906|    0.824240|    0.012015|
|        5321|   -6.116963|   -8.041147|    0.824241|    0.012015|
|        5322|   -6.119702|   -8.046503|    0.824241|    0.012015|
|        5323|   -6.122681|   -8.051974|    0.824241|    0.012015|
|        5324|   -6.125897|   -8.057557|    0.824241|    0.012015|
|        5325|   -6.129341|   -8.063248|    0.824241|    0.012015|
|        5326|   -6.132998|   -8.069042|    0.824241|    0.012015|
|        5327|   -6.136847|   -8.074933|    0.824241|    0.012015|
|        5328|   -6.140860|   -8.080913|    0.824242|    0.012015|
|        5329|   -6.145006|   -8.086976|    0.824242|    0.012016|
|        5330|   -6.149248|   -8.093112|    0.824242|    0.012016|
|        5331|   -6.153546|   -8.099313|    0.824242|    0.012016|
|        5332|   -6.157858|   -8.105567|    0.824242|    0.012016|
|        5333|   -6.162140|   -8.111866|    0.824242|    0.012016|
|        5334|   -6.166348|   -8.118199|    0.824243|    0.012016|
|        5335|   -6.170439|   -8.124557|    0.824243|    0.012016|
|        5336|   -6.174374|   -8.130930|    0.824243|    0.012016|
|        5337|   -6.178116|   -8.137309|    0.824243|    0.012016|
|        5338|   -6.181636|   -8.143685|    0.824243|    0.012016|
|        5339|   -6.184910|   -8.150052|    0.824243|    0.012016|
|        5340|   -6.187921|   -8.156402|    0.824243|    0.012016|
|        5341|   -6.190663|   -8.162731|    0.824243|    0.012017|
|        5342|   -6.193137|   -8.169032|    0.824244|    0.012017|
|        5343|   -6.195351|   -8.175304|    0.824244|    0.012017|
|        5344|   -6.197324|   -8.181542|    0.824244|    0.012017|
|        5345|   -6.199081|   -8.187746|    0.824244|    0.012017|
|        5346|   -6.200653|   -8.193916|    0.824244|    0.012017|
|        5347|   -6.202078|   -8.200050|    0.824244|    0.012017|
|        5348|   -6.203396|   -8.206149|    0.824244|    0.012017|
|        5349|   -6.204651|   -8.212219|    0.824244|    0.012017|
|        5350|   -6.205888|   -8.218260|    0.824244|    0.012017|
|        5351|   -6.207151|   -8.224272|    0.824244|    0.012017|
|        5352|   -6.208484|   -8.230256|    0.824244|    0.012017|
|        5353|   -6.209931|   -8.236210|    0.824245|    0.012017|
|        5354|   -6.211529|   -8.242132|    0.824245|    0.012017|
|        5355|   -6.213315|   -8.248022|    0.824245|    0.012017|
|        5356|   -6.215320|   -8.253878|    0.824245|    0.012017|
|        5357|   -6.217574|   -8.259699|    0.824245|    0.012017|
|        5358|   -6.220098|   -8.265485|    0.824245|    0.012017|
|        5359|   -6.222911|   -8.271235|    0.824245|    0.012017|
|        5360|   -6.226027|   -8.276946|    0.824245|    0.012017|
|        5361|   -6.229454|   -8.282618|    0.824245|    0.012017|
|        5362|   -6.233196|   -8.288248|    0.824245|    0.012017|
|        5363|   -6.237251|   -8.293834|    0.824245|    0.012017|
|        5364|   -6.241613|   -8.299374|    0.824245|    0.012017|
|        5365|   -6.246270|   -8.304867|    0.824245|    0.012017|
|        5366|   -6.251206|   -8.310310|    0.824245|    0.012017|
|        5367|   -6.256398|   -8.315701|    0.824245|    0.012017|
|        5368|   -6.261819|   -8.321039|    0.824245|    0.012017|
|        5369|   -6.267440|   -8.326324|    0.824245|    0.012017|
|        5370|   -6.273224|   -8.331553|    0.824245|    0.012017|
|        5371|   -6.279131|   -8.336728|    0.824245|    0.012017|
|        5372|   -6.285118|   -8.341849|    0.824245|    0.012017|
|        5373|   -6.291138|   -8.346919|    0.824245|    0.012017|
|        5374|   -6.297143|   -8.351939|    0.824245|    0.012017|
|        5375|   -6.303083|   -8.356914|    0.824244|    0.012017|
|        5376|   -6.308906|   -8.361848|    0.824244|    0.012017|
|        5377|   -6.314565|   -8.366746|    0.824244|    0.012017|
|        5378|   -6.320010|   -8.371615|    0.824244|    0.012017|
|        5379|   -6.325197|   -8.376460|    0.824244|    0.012017|
|        5380|   -6.330087|   -8.381291|    0.824244|    0.012017|
|        5381|   -6.334645|   -8.386115|    0.824244|    0.012017|
|        5382|   -6.338843|   -8.390942|    0.824244|    0.012016|
|        5383|   -6.342660|   -8.395781|    0.824244|    0.012016|
|        5384|   -6.346083|   -8.400643|    0.824244|    0.012016|
|        5385|   -6.349106|   -8.405535|    0.824244|    0.012016|
|        5386|   -6.351732|   -8.410468|    0.824244|    0.012016|
|        5387|   -6.353969|   -8.415450|    0.824244|    0.012016|
|        5388|   -6.355832|   -8.420485|    0.824245|    0.012016|
|        5389|   -6.357343|   -8.425580|    0.824245|    0.012016|
|        5390|   -6.358524|   -8.430737|    0.824245|    0.012016|
|        5391|   -6.359404|   -8.435957|    0.824245|    0.012016|
|        5392|   -6.360011|   -8.441238|    0.824245|    0.012016|
|        5393|   -6.360374|   -8.446578|    0.824245|    0.012015|
|        5394|   -6.360523|   -8.451970|    0.824245|    0.012015|
|        5395|   -6.360486|   -8.457405|    0.824245|    0.012015|
|        5396|   -6.360289|   -8.462873|    0.824245|    0.012015|
|        5397|   -6.359955|   -8.468361|    0.824245|    0.012015|
|        5398|   -6.359506|   -8.473853|    0.824245|    0.012015|
|        5399|   -6.358961|   -8.479332|    0.824246|    0.012015|
|        5400|   -6.358334|   -8.484781|    0.824246|    0.012015|
|        5401|   -6.357640|   -8.490178|    0.824246|    0.012015|
|        5402|   -6.356889|   -8.495506|    0.824246|    0.012015|
|        5403|   -6.356089|   -8.500743|    0.824246|    0.012014|
|        5404|   -6.355248|   -8.505870|    0.824246|    0.012014|
|        5405|   -6.354369|   -8.510869|    0.824246|    0.012014|
|        5406|   -6.353458|   -8.515722|    0.824247|    0.012014|
|        5407|   -6.352516|   -8.520414|    0.824247|    0.012014|
|        5408|   -6.351547|   -8.524932|    0.824247|    0.012014|
|        5409|   -6.350552|   -8.529266|    0.824247|    0.012014|
|        5410|   -6.349534|   -8.533406|    0.824247|    0.012014|
|        5411|   -6.348493|   -8.537348|    0.824247|    0.012014|
|        5412|   -6.347433|   -8.541088|    0.824248|    0.012014|
|        5413|   -6.346357|   -8.544626|    0.824248|    0.012014|
|        5414|   -6.345267|   -8.547963|    0.824248|    0.012014|
|        5415|   -6.344167|   -8.551103|    0.824248|    0.012013|
|        5416|   -6.343062|   -8.554049|    0.824248|    0.012013|
|        5417|   -6.341956|   -8.556809|    0.824248|    0.012013|
|        5418|   -6.340857|   -8.559387|    0.824248|    0.012013|
|        5419|   -6.339770|   -8.561791|    0.824249|    0.012013|
|        5420|   -6.338702|   -8.564026|    0.824249|    0.012013|
|        5421|   -6.337662|   -8.566098|    0.824249|    0.012013|
|        5422|   -6.336660|   -8.568014|    0.824249|    0.012013|
|        5423|   -6.335703|   -8.569777|    0.824249|    0.012013|
|        5424|   -6.334804|   -8.571394|    0.824249|    0.012013|
|        5425|   -6.333973|   -8.572868|    0.824249|    0.012013|
|        5426|   -6.333223|   -8.574204|    0.824249|    0.012013|
|        5427|   -6.332565|   -8.575405|    0.824249|    0.012013|
|        5428|   -6.332013|   -8.576477|    0.824250|    0.012013|
|        5429|   -6.331582|   -8.577425|    0.824250|    0.012013|
|        5430|   -6.331284|   -8.578255|    0.824250|    0.012013|
|        5431|   -6.331134|   -8.578974|    0.824250|    0.012013|
|        5432|   -6.331148|   -8.579590|    0.824250|    0.012013|
|        5433|   -6.331338|   -8.580113|    0.824250|    0.012013|
|        5434|   -6.331721|   -8.580554|    0.824250|    0.012013|
|        5435|   -6.332309|   -8.580926|    0.824250|    0.012013|
|        5436|   -6.333116|   -8.581241|    0.824250|    0.012013|
|        5437|   -6.334154|   -8.581515|    0.824250|    0.012013|
|        5438|   -6.335435|   -8.581762|    0.824250|    0.012013|
|        5439|   -6.336968|   -8.582000|    0.824250|    0.012013|
|        5440|   -6.338763|   -8.582242|    0.824250|    0.012013|
|        5441|   -6.340827|   -8.582507|    0.824250|    0.012013|
|        5442|   -6.343163|   -8.582811|    0.824250|    0.012013|
|        5443|   -6.345775|   -8.583167|    0.824250|    0.012013|
|        5444|   -6.348663|   -8.583592|    0.824250|    0.012013|
|        5445|   -6.351824|   -8.584099|    0.824250|    0.012013|
|        5446|   -6.355253|   -8.584700|    0.824250|    0.012014|
|        5447|   -6.358942|   -8.585407|    0.824250|    0.012014|
|        5448|   -6.362878|   -8.586228|    0.824250|    0.012014|
|        5449|   -6.367046|   -8.587172|    0.824250|    0.012014|
|        5450|   -6.371429|   -8.588245|    0.824250|    0.012014|
|        5451|   -6.376003|   -8.589451|    0.824250|    0.012014|
|        5452|   -6.380743|   -8.590795|    0.824250|    0.012014|
|        5453|   -6.385618|   -8.592277|    0.824250|    0.012014|
|        5454|   -6.390597|   -8.593899|    0.824250|    0.012014|
|        5455|   -6.395642|   -8.595658|    0.824250|    0.012014|
|        5456|   -6.400714|   -8.597554|    0.824250|    0.012014|
|        5457|   -6.405771|   -8.599582|    0.824250|    0.012014|
|        5458|   -6.410769|   -8.601739|    0.824250|    0.012014|
|        5459|   -6.415664|   -8.604021|    0.824249|    0.012015|
|        5460|   -6.420408|   -8.606422|    0.824249|    0.012015|
|        5461|   -6.424956|   -8.608936|    0.824249|    0.012015|
|        5462|   -6.429265|   -8.611557|    0.824249|    0.012015|
|        5463|   -6.433293|   -8.614279|    0.824249|    0.012015|
|        5464|   -6.437001|   -8.617096|    0.824249|    0.012015|
|        5465|   -6.440358|   -8.620001|    0.824249|    0.012015|
|        5466|   -6.443334|   -8.622988|    0.824249|    0.012015|
|        5467|   -6.445910|   -8.626052|    0.824249|    0.012015|
|        5468|   -6.448070|   -8.629185|    0.824248|    0.012015|
|        5469|   -6.449809|   -8.632382|    0.824248|    0.012015|
|        5470|   -6.451128|   -8.635638|    0.824248|    0.012015|
|        5471|   -6.452034|   -8.638945|    0.824248|    0.012015|
|        5472|   -6.452544|   -8.642300|    0.824248|    0.012015|
|        5473|   -6.452679|   -8.645695|    0.824248|    0.012015|
|        5474|   -6.452468|   -8.649126|    0.824247|    0.012016|
|        5475|   -6.451942|   -8.652588|    0.824247|    0.012016|
|        5476|   -6.451138|   -8.656075|    0.824247|    0.012016|
|        5477|   -6.450094|   -8.659583|    0.824247|    0.012016|
|        5478|   -6.448850|   -8.663105|    0.824247|    0.012016|
|        5479|   -6.447448|   -8.666637|    0.824247|    0.012016|
|        5480|   -6.445927|   -8.670175|    0.824246|    0.012016|
|        5481|   -6.444328|   -8.673713|    0.824246|    0.012016|
|        5482|   -6.442689|   -8.677248|    0.824246|    0.012016|
|        5483|   -6.441047|   -8.680774|    0.824246|    0.012016|
|        5484|   -6.439435|   -8.684289|    0.824246|    0.012016|
|        5485|   -6.437884|   -8.687789|    0.824246|    0.012016|
|        5486|   -6.436425|   -8.691271|    0.824245|    0.012016|
|        5487|   -6.435081|   -8.694734|    0.824245|    0.012016|
|        5488|   -6.433877|   -8.698175|    0.824245|    0.012016|
|        5489|   -6.432832|   -8.701594|    0.824245|    0.012016|
|        5490|   -6.431965|   -8.704991|    0.824245|    0.012016|
|        5491|   -6.431289|   -8.708367|    0.824245|    0.012016|
|        5492|   -6.430817|   -8.711722|    0.824245|    0.012016|
|        5493|   -6.430560|   -8.715061|    0.824244|    0.012016|
|        5494|   -6.430525|   -8.718386|    0.824244|    0.012016|
|        5495|   -6.430718|   -8.721700|    0.824244|    0.012016|
|        5496|   -6.431144|   -8.725009|    0.824244|    0.012016|
|        5497|   -6.431804|   -8.728317|    0.824244|    0.012016|
|        5498|   -6.432700|   -8.731631|    0.824244|    0.012016|
|        5499|   -6.433832|   -8.734955|    0.824244|    0.012001|
+-----------------------------------------------------------------------+
|Fixed CL Mode (Finite Difference)       |Value                         |
+-----------------------------------------------------------------------+
|Delta CL / Delta AoA                    |0.243471                      |
|Delta CD / Delta CL                     |0.0182725                     |
|Delta CMz / Delta CL                    |0.00693985                    |
+-----------------------------------------------------------------------+
Writing Flow Meta-Data file: flow.meta

----------------------------- Solver Exit -------------------------------

Maximum number of iterations reached (ITER = 5500) before convergence.
+-----------------------------------------------------------------------+
|      Convergence Field     |     Value    |   Criterion  |  Converged |
+-----------------------------------------------------------------------+
|                    rms[Rho]|      -6.43383|         < -12|          No|
+-----------------------------------------------------------------------+
-------------------------------------------------------------------------

--------------------------- Finalizing Solver ---------------------------
Deleted CNumerics container.
Deleted CIntegration container.
Deleted CSolver container.
Deleted CIteration container.
Deleted CInterface container.
Deleted CGeometry container.
Deleted CFreeFormDefBox class.
Deleted CSurfaceMovement class.
Deleted CVolumetricMovement class.
Deleted CConfig container.
Deleted nInst container.
Deleted COutput class.
-------------------------------------------------------------------------

------------------------- Exit Success (SU2_CFD) ------------------------


-------------------------------------------------------------------------
|    ___ _   _ ___                                                      |
|   / __| | | |_  )   Release 8.0.0 "Harrier"                           |
|   \__ \ |_| |/ /                                                      |
|   |___/\___//___|   Suite (Solution Exporting Code)                   |
|                                                                       |
-------------------------------------------------------------------------
| SU2 Project Website: https://su2code.github.io                        |
|                                                                       |
| The SU2 Project is maintained by the SU2 Foundation                   |
| (http://su2foundation.org)                                            |
-------------------------------------------------------------------------
| Copyright 2012-2023, SU2 Contributors                                 |
|                                                                       |
| SU2 is free software; you can redistribute it and/or                  |
| modify it under the terms of the GNU Lesser General Public            |
| License as published by the Free Software Foundation; either          |
| version 2.1 of the License, or (at your option) any later version.    |
|                                                                       |
| SU2 is distributed in the hope that it will be useful,                |
| but WITHOUT ANY WARRANTY; without even the implied warranty of        |
| MERCHANTABILITY or FITNESS FOR A PARTICULAR PURPOSE. See the GNU      |
| Lesser General Public License for more details.                       |
|                                                                       |
| You should have received a copy of the GNU Lesser General Public      |
| License along with SU2. If not, see <http://www.gnu.org/licenses/>.   |
-------------------------------------------------------------------------

----------------- Physical Case Definition ( Zone 0 ) -------------------
Input mesh file name: mesh_RAE2822_turb_deform.su2

-------------------- Output Information ( Zone 0 ) ----------------------
The tabular file format is CSV (.csv).
Flow variables file name: flow.

------------- Config File Boundary Information ( Zone 0 ) ---------------
+-----------------------------------------------------------------------+
|                        Marker Type|                        Marker Name|
+-----------------------------------------------------------------------+
|                          Far-field|                           FARFIELD|
+-----------------------------------------------------------------------+
|                     Heat flux wall|                            AIRFOIL|
+-----------------------------------------------------------------------+
Two dimensional problem.
13937 grid points before partitioning.
22842 volume elements before partitioning.
2 surface markers.
192 boundary elements in index 0 (Marker = AIRFOIL).
40 boundary elements in index 1 (Marker = FARFIELD).
Executing the partitioning functions.
Building the graph adjacency structure.
Calling ParMETIS... graph partitioning complete (831 edge cuts).
Distributing ParMETIS coloring.
Rebalancing vertices.
Rebalancing volume element connectivity.
Rebalancing markers and surface elements.
14875 vertices including ghost points. 
23674 interior elements including halo cells. 
18780 triangles.
4894 quadrilaterals.
Establishing MPI communication patterns.
Identify vertices.
Storing a mapping from global to local point index.

------------------------- Solution Postprocessing -----------------------
Reading and storing the solution from restart_flow.
Volume output fields: COORDINATES, SOLUTION
  Info: Ignoring the following screen output fields:
  RMS_DENSITY, RMS_NU_TILDE, LIFT, DRAG
Screen output fields: INNER_ITER
  Info: Ignoring the following history output groups:
  RMS_RES, AERO_COEFF
History output group(s): ITER
Warning: No (valid) fields chosen for convergence monitoring. Convergence monitoring inactive.
Warning: No (valid) fields chosen for time convergence monitoring. Time convergence monitoring inactive.
|Paraview                           |flow.vtu                           |
|Paraview surface                   |surface_flow.vtu                   |
|CSV file                           |surface_flow.csv                   |

------------------------- Finalize Solver -------------------------
Deleted CGeometry container.
Deleted CSolver class.
Deleted CConfig container.
Deleted COutput class.

Completed in 0.015197 seconds on 6 cores.

------------------------- Exit Success (SU2_SOL) ------------------------

