
-------------------------------------------------------------------------
|    ___ _   _ ___                                                      |
|   / __| | | |_  )   Release 8.0.0 "Harrier"                           |
|   \__ \ |_| |/ /                                                      |
|   |___/\___//___|   Suite (Computational Fluid Dynamics Code)         |
|                                                                       |
-------------------------------------------------------------------------
| SU2 Project Website: https://su2code.github.io                        |
|                                                                       |
| The SU2 Project is maintained by the SU2 Foundation                   |
| (http://su2foundation.org)                                            |
-------------------------------------------------------------------------
| Copyright 2012-2023, SU2 Contributors                                 |
|                                                                       |
| SU2 is free software; you can redistribute it and/or                  |
| modify it under the terms of the GNU Lesser General Public            |
| License as published by the Free Software Foundation; either          |
| version 2.1 of the License, or (at your option) any later version.    |
|                                                                       |
| SU2 is distributed in the hope that it will be useful,                |
| but WITHOUT ANY WARRANTY; without even the implied warranty of        |
| MERCHANTABILITY or FITNESS FOR A PARTICULAR PURPOSE. See the GNU      |
| Lesser General Public License for more details.                       |
|                                                                       |
| You should have received a copy of the GNU Lesser General Public      |
| License along with SU2. If not, see <http://www.gnu.org/licenses/>.   |
-------------------------------------------------------------------------

Parsing config file for zone 0

----------------- Physical Case Definition ( Zone 0 ) -------------------
Compressible RANS equations.
Turbulence model: Spalart-Allmaras-noft2
Hybrid RANS/LES: No Hybrid RANS/LES
Mach number: 0.734.
Angle of attack (AoA): 2.31 deg, and angle of sideslip (AoS): 0 deg.
Reynolds number: 6.5e+06. Reference length 1.
No restart solution, use the values at infinity (freestream).
Dimensional simulation.
The reference area is 1 m^2.
The semi-span will be computed using the max y(3D) value.
The reference length is 1 m.
Reference origin for moment evaluation is (0.25, 0, 0).
Surface(s) where the force coefficients are evaluated: AIRFOIL.

Surface(s) plotted in the output file: AIRFOIL.
Input mesh file name: Mesh.su2

--------------- Space Numerical Integration ( Zone 0 ) ------------------
Roe (with entropy fix = 0.001) solver for the flow inviscid terms.
Standard Roe without low-dissipation function.
Second order integration in space, with slope limiter.
Venkatakrishnan slope-limiting method, with constant: 0.03.
The reference element size is: 1. 
Scalar upwind solver for the turbulence model.
First order integration in space.
Average of gradients with correction (viscous flow terms).
Average of gradients with correction (viscous turbulence terms).
Gradient for upwind reconstruction: inverse-distance weighted Least-Squares.
Gradient for viscous and source terms: inverse-distance weighted Least-Squares.

--------------- Time Numerical Integration  ( Zone 0 ) ------------------
Local time stepping (steady state simulation).
Euler implicit method for the flow equations.
FGMRES is used for solving the linear system.
Using a ILU(0) preconditioning.
Convergence criteria of the linear solver: 1e-06.
Max number of linear iterations: 10.
CFL adaptation. Factor down: 0.5, factor up: 1.1,
                lower limit: 1, upper limit: 1000,
                acceptable linear residual: 0.001.
Courant-Friedrichs-Lewy number:        2
Euler implicit time integration for the turbulence model.

------------------ Convergence Criteria  ( Zone 0 ) ---------------------
Maximum number of solver subiterations: 5000.
Begin convergence monitoring at iteration 10.
Residual minimum value: 1e-14.
Cauchy series min. value: 1e-06.
Number of Cauchy elements: 100.
Begin windowed time average at iteration 0.

-------------------- Output Information ( Zone 0 ) ----------------------
File writing frequency: 
+------------------------------------+
|                     File| Frequency|
+------------------------------------+
|                  RESTART|       500|
|                 PARAVIEW|       500|
|         SURFACE_PARAVIEW|       500|
+------------------------------------+
Writing the convergence history file every 1 inner iterations.
Writing the screen convergence history every 1 inner iterations.
The tabular file format is CSV (.csv).
Convergence history file name: historySecond.
Forces breakdown file name: forces_breakdown.dat.
Surface file name: surface_flow.
Volume file name: flow.
Restart file name: restart_flow.dat.

------------- Config File Boundary Information ( Zone 0 ) ---------------
+-----------------------------------------------------------------------+
|                        Marker Type|                        Marker Name|
+-----------------------------------------------------------------------+
|                          Far-field|                           FARFIELD|
+-----------------------------------------------------------------------+
|                     Heat flux wall|                            AIRFOIL|
+-----------------------------------------------------------------------+

-------------------- Output Preprocessing ( Zone 0 ) --------------------

WARNING: SURFACE_PRESSURE_DROP can only be computed for at least 2 surfaces (outlet, inlet, ...)

Screen output fields: INNER_ITER, WALL_TIME, RMS_DENSITY, LIFT, DRAG, MIN_CFL, MAX_CFL, AVG_CFL
  Info: Ignoring the following history output groups:
  RESIDUALS, CFL
History output group(s): INNER_ITER, LIFT, DRAG
Convergence field(s): LIFT
Warning: No (valid) fields chosen for time convergence monitoring. Time convergence monitoring inactive.
  Info: Ignoring the following volume output fields/groups:
  RESIDUALS
Volume output fields: SOLUTION, PRIMITIVE, GRADIENTS, HESSIANS, EIGENVALUES, WALL_DISTANCE, COORDINATES

------------------- Geometry Preprocessing ( Zone 0 ) -------------------
Two dimensional problem.
104904 grid points before partitioning.
172186 volume elements before partitioning.
2 surface markers.
948 boundary elements in index 0 (Marker = AIRFOIL).
40 boundary elements in index 1 (Marker = FARFIELD).
Executing the partitioning functions.
Building the graph adjacency structure.
Calling ParMETIS... graph partitioning complete (1526 edge cuts).
Distributing ParMETIS coloring.
Rebalancing vertices.
Rebalancing volume element connectivity.
Rebalancing markers and surface elements.
106708 vertices including ghost points. 
173713 interior elements including halo cells. 
136812 triangles.
36901 quadrilaterals.
Establishing MPI communication patterns.
Setting point connectivity.
Renumbering points (Reverse Cuthill McKee Ordering).
Recomputing point connectivity.
Setting element connectivity.
Checking the numerical grid orientation.
All volume elements are correctly orientend.
All surface elements are correctly orientend.
Identifying edges and vertices.
Setting the control volume structure.
Area of the computational grid: 31287.1.
Searching for the closest normal neighbors to the surfaces.
Storing a mapping from global to local point index.
Compute the surface curvature.
Max K: 14233.3. Mean K: 41.8903. Standard deviation K: 622.026.
Checking for periodicity.
Computing mesh quality statistics for the dual control volumes.
+--------------------------------------------------------------+
|           Mesh Quality Metric|        Minimum|        Maximum|
+--------------------------------------------------------------+
|    Orthogonality Angle (deg.)|        53.2603|             90|
|     CV Face Area Aspect Ratio|        1.00405|        4296.37|
|           CV Sub-Volume Ratio|              1|        9.52766|
+--------------------------------------------------------------+
Finding max control volume width.
Communicating number of neighbors.
Wetted area = 2.02062 m.
Area projection in the x-plane = 0.12328 m, y-plane = 0.993661 m.
Max. coordinate in the x-direction = 0.993668 m, y-direction = 0.0643488 m.
Min. coordinate in the x-direction = 0 m, y-direction = -0.0577859 m.
Computing wall distances.

-------------------- Solver Preprocessing ( Zone 0 ) --------------------
Viscous flow: Computing pressure using the ideal gas law
based on the free-stream temperature and a density computed
from the Reynolds number.
Force coefficients computed using free-stream values.

-- Models:
+------------------------------------------------------------------------------+
|          Viscosity Model|        Conductivity Model|              Fluid Model|
+------------------------------------------------------------------------------+
|               SUTHERLAND|          CONSTANT_PRANDTL|             STANDARD_AIR|
+------------------------------------------------------------------------------+
-- Fluid properties:
+------------------------------------------------------------------------------+
|                  Name|    Dim. value|    Ref. value|      Unit|Non-dim. value|
+------------------------------------------------------------------------------+
|        Ref. Viscosity|     1.716e-05|             1|   N.s/m^2|     1.716e-05|
|      Sutherland Temp.|        273.15|             1|         K|        273.15|
|     Sutherland Const.|         110.4|             1|         K|         110.4|
+------------------------------------------------------------------------------+
|        Prandtl (Lam.)|             -|             -|         -|          0.71|
|       Prandtl (Turb.)|             -|             -|         -|           0.9|
+------------------------------------------------------------------------------+
|          Gas Constant|       287.058|             1|  N.m/kg.K|       287.058|
|      Spec. Heat Ratio|             -|             -|         -|           1.4|
+------------------------------------------------------------------------------+
-- Initial and free-stream conditions:
+------------------------------------------------------------------------------+
|                  Name|    Dim. value|    Ref. value|      Unit|Non-dim. value|
+------------------------------------------------------------------------------+
|       Static Pressure|         38515|             1|        Pa|         38515|
|               Density|      0.465631|             1|    kg/m^3|      0.465631|
|           Temperature|        288.15|             1|         K|        288.15|
|          Total Energy|        237984|             1|   m^2/s^2|        237984|
|            Velocity-X|       249.575|             1|       m/s|       249.575|
|            Velocity-Y|       10.0676|             1|       m/s|       10.0676|
|    Velocity Magnitude|       249.778|             1|       m/s|       249.778|
+------------------------------------------------------------------------------+
|             Viscosity|    1.7893e-05|             1|   N.s/m^2|    1.7893e-05|
|          Conductivity|             -|             1|   W/m^2.K|             -|
|     Turb. Kin. Energy|       233.959|             1|   m^2/s^2|       233.959|
|     Spec. Dissipation|        608834|             1|       1/s|        608834|
+------------------------------------------------------------------------------+
|           Mach Number|             -|             -|         -|         0.734|
|       Reynolds Number|             -|             -|         -|       6.5e+06|
+------------------------------------------------------------------------------+
Initialize Jacobian structure (Navier-Stokes). MG level: 0.
Initialize Jacobian structure (SA model).

------------------- Numerics Preprocessing ( Zone 0 ) -------------------

----------------- Integration Preprocessing ( Zone 0 ) ------------------

------------------- Iteration Preprocessing ( Zone 0 ) ------------------
Euler/Navier-Stokes/RANS fluid iteration.

------------------------------ Begin Solver -----------------------------

Simulation Run using the Single-zone Driver
WARNING: SU2 was not compiled for an AVX-capable architecture. Performance could be better,
         see https://su2code.github.io/docs_v7/Build-SU2-Linux-MacOS/#compiler-optimizations
+-------------------------------------------------------------------------------------------------------+
|  Inner_Iter|   Time(sec)|    rms[Rho]|          CL|          CD|     Min CFL|     Max CFL|     Avg CFL|
+-------------------------------------------------------------------------------------------------------+
|           0|  1.8777e-01|   -2.420682|    0.096781|    0.414778|  2.0000e+00|  2.2000e+00|  2.1996e+00|
|           1|  1.8896e-01|   -2.435010|    0.132622|    0.427034|  2.0000e+00|  2.4200e+00|  2.4192e+00|
|           2|  1.8753e-01|   -2.602280|    0.154928|    0.433902|  2.0000e+00|  2.6620e+00|  2.6609e+00|
|           3|  1.8756e-01|   -2.691113|    0.165186|    0.432076|  2.2000e+00|  2.9282e+00|  2.9269e+00|
|           4|  1.8753e-01|   -2.748068|    0.169362|    0.423119|  2.4200e+00|  3.2210e+00|  3.2194e+00|
|           5|  1.8963e-01|   -2.797464|    0.171693|    0.408589|  2.6620e+00|  3.5431e+00|  3.5410e+00|
|           6|  2.2958e-01|   -2.850713|    0.175283|    0.393875|  2.9282e+00|  3.8974e+00|  3.8946e+00|
|           7|  2.7688e-01|   -2.885263|    0.178943|    0.379725|  3.2210e+00|  4.2872e+00|  4.2835e+00|
|           8|  2.7038e-01|   -2.918644|    0.182156|    0.366442|  3.5431e+00|  4.7159e+00|  4.7110e+00|
|           9|  2.6432e-01|   -2.946805|    0.184860|    0.354858|  3.8974e+00|  5.1875e+00|  5.1809e+00|
|          10|  2.5957e-01|   -2.971280|    0.186995|    0.344707|  4.2872e+00|  5.7062e+00|  5.6977e+00|
|          11|  2.5664e-01|   -2.995439|    0.188667|    0.335386|  4.7159e+00|  6.2769e+00|  6.2659e+00|
|          12|  2.7294e-01|   -3.017822|    0.189745|    0.326533|  5.1875e+00|  6.9045e+00|  6.8904e+00|
|          13|  2.7997e-01|   -3.038541|    0.190631|    0.318047|  5.7062e+00|  7.5950e+00|  7.5770e+00|
|          14|  2.7718e-01|   -3.057842|    0.191499|    0.309998|  6.2769e+00|  8.3545e+00|  8.3316e+00|
|          15|  2.7559e-01|   -3.075224|    0.192315|    0.302477|  6.9045e+00|  9.1899e+00|  9.1614e+00|
|          16|  2.8369e-01|   -3.089936|    0.193066|    0.295494|  7.5950e+00|  1.0109e+01|  1.0073e+01|
|          17|  2.9334e-01|   -3.101146|    0.193664|    0.288989|  8.3545e+00|  1.1120e+01|  1.1076e+01|
|          18|  2.9128e-01|   -3.108298|    0.194149|    0.282854|  9.1899e+00|  1.2232e+01|  1.2179e+01|
|          19|  2.8946e-01|   -3.111325|    0.194520|    0.277001|  1.0109e+01|  1.3455e+01|  1.3391e+01|
|          20|  2.8782e-01|   -3.110724|    0.194757|    0.271334|  1.0109e+01|  1.4800e+01|  1.4723e+01|
|          21|  2.9412e-01|   -3.107762|    0.194832|    0.265787|  1.0109e+01|  1.6281e+01|  1.6188e+01|
|          22|  3.1318e-01|   -3.102814|    0.194579|    0.260262|  1.0109e+01|  1.7909e+01|  1.7799e+01|
|          23|  3.1089e-01|   -3.092402|    0.193952|    0.254640|  1.0109e+01|  1.9699e+01|  1.9570e+01|
|          24|  3.0876e-01|   -3.075866|    0.192846|    0.248806|  1.1120e+01|  2.1669e+01|  2.1518e+01|
|          25|  3.0684e-01|   -3.055548|    0.191075|    0.242654|  1.2232e+01|  2.3836e+01|  2.3661e+01|
|          26|  3.0509e-01|   -3.034861|    0.188497|    0.236065|  1.3455e+01|  2.6220e+01|  2.6016e+01|
|          27|  3.1581e-01|   -3.016468|    0.185078|    0.228929|  1.4800e+01|  2.8842e+01|  2.8606e+01|
|          28|  3.1358e-01|   -3.001877|    0.180891|    0.221144|  7.4002e+00|  1.4421e+01|  1.4303e+01|
|          29|  3.1168e-01|   -2.990133|    0.178767|    0.217293|  8.1403e+00|  1.5863e+01|  1.5733e+01|
|          30|  3.0998e-01|   -2.980320|    0.176352|    0.213034|  8.9543e+00|  1.7449e+01|  1.7306e+01|
|          31|  3.1712e-01|   -2.967893|    0.173744|    0.208366|  9.8497e+00|  1.9194e+01|  1.9037e+01|
|          32|  3.1729e-01|   -2.954297|    0.171030|    0.203293|  1.0835e+01|  2.1114e+01|  2.0940e+01|
|          33|  3.1556e-01|   -2.940809|    0.168321|    0.197846|  1.1918e+01|  2.3225e+01|  2.3032e+01|
|          34|  3.1396e-01|   -2.928236|    0.165772|    0.192084|  1.3110e+01|  2.5548e+01|  2.5334e+01|
|          35|  3.1246e-01|   -2.917563|    0.163510|    0.186098|  1.4421e+01|  2.8102e+01|  2.7866e+01|
|          36|  3.1689e-01|   -2.909278|    0.161582|    0.180008|  1.4421e+01|  2.8102e+01|  2.7866e+01|
|          37|  3.1869e-01|   -2.903947|    0.160002|    0.174462|  1.5863e+01|  3.0913e+01|  3.0653e+01|
|          38|  3.1718e-01|   -2.900538|    0.158348|    0.169047|  7.9315e+00|  1.5456e+01|  1.5326e+01|
|          39|  3.1570e-01|   -2.898397|    0.157509|    0.166515|  8.7247e+00|  1.7002e+01|  1.6859e+01|
|          40|  3.1432e-01|   -2.894445|    0.156483|    0.163933|  9.5972e+00|  1.8702e+01|  1.8545e+01|
|          41|  3.1877e-01|   -2.889052|    0.155210|    0.161338|  1.0557e+01|  2.0572e+01|  2.0399e+01|
|          42|  3.1825e-01|   -2.883190|    0.153622|    0.158756|  1.1613e+01|  2.2630e+01|  2.2439e+01|
|          43|  3.1692e-01|   -2.877729|    0.151699|    0.156188|  1.2774e+01|  2.4893e+01|  2.4683e+01|
|          44|  3.1565e-01|   -2.872939|    0.149521|    0.153603|  1.4051e+01|  2.7382e+01|  2.7151e+01|
|          45|  3.2385e-01|   -2.868843|    0.147339|    0.150912|  1.5456e+01|  3.0120e+01|  2.9867e+01|
|          46|  3.2318e-01|   -2.865695|    0.145625|    0.147947|  7.7282e+00|  1.5060e+01|  1.4933e+01|
|          47|  3.2181e-01|   -2.864100|    0.144942|    0.146451|  8.5010e+00|  1.6566e+01|  1.6427e+01|
|          48|  3.2051e-01|   -2.861449|    0.144516|    0.144743|  9.3511e+00|  1.8223e+01|  1.8069e+01|
|          49|  3.1932e-01|   -2.856694|    0.144533|    0.142754|  1.0286e+01|  2.0045e+01|  1.9876e+01|
|          50|  3.2296e-01|   -2.850301|    0.145230|    0.140384|  1.1315e+01|  2.2049e+01|  2.1864e+01|
|          51|  3.2225e-01|   -2.843278|    0.146897|    0.137506|  1.2446e+01|  2.4254e+01|  2.4050e+01|
|          52|  3.2107e-01|   -2.835452|    0.149871|    0.133970|  1.3691e+01|  2.6680e+01|  2.6455e+01|
|          53|  3.2227e-01|   -2.826893|    0.154522|    0.129625|  1.5060e+01|  2.9348e+01|  2.9101e+01|
|          54|  3.2781e-01|   -2.816926|    0.161228|    0.124339|  7.5300e+00|  1.4674e+01|  1.4550e+01|
|          55|  3.2641e-01|   -2.804814|    0.164911|    0.121608|  8.2830e+00|  1.6141e+01|  1.6005e+01|
|          56|  3.2519e-01|   -2.796619|    0.169427|    0.118459|  9.1113e+00|  1.7755e+01|  1.7606e+01|
|          57|  3.2403e-01|   -2.785244|    0.174895|    0.114858|  1.0022e+01|  1.9531e+01|  1.9367e+01|
|          58|  3.2300e-01|   -2.771732|    0.181425|    0.110776|  1.1025e+01|  2.1484e+01|  2.1303e+01|
|          59|  3.2610e-01|   -2.757081|    0.189111|    0.106201|  1.2127e+01|  2.3632e+01|  2.3434e+01|
|          60|  3.2498e-01|   -2.741863|    0.198011|    0.101149|  1.3340e+01|  2.5996e+01|  2.5777e+01|
|          61|  3.2392e-01|   -2.726159|    0.208117|    0.095681|  1.4674e+01|  2.8595e+01|  2.8355e+01|
|          62|  3.2667e-01|   -2.709820|    0.219329|    0.089914|  1.4674e+01|  2.8595e+01|  2.8355e+01|
|          63|  3.2826e-01|   -2.691919|    0.230361|    0.084517|  1.4674e+01|  2.8595e+01|  2.8355e+01|
|          64|  3.2724e-01|   -2.674712|    0.240989|    0.079598|  1.4674e+01|  2.8595e+01|  2.8355e+01|
|          65|  3.2621e-01|   -2.659719|    0.251015|    0.075242|  1.4674e+01|  2.8595e+01|  2.8355e+01|
|          66|  3.2523e-01|   -2.642984|    0.260298|    0.071508|  1.6141e+01|  3.1455e+01|  3.1190e+01|
|          67|  3.2777e-01|   -2.626461|    0.269506|    0.068191|  8.0706e+00|  1.5727e+01|  1.5595e+01|
|          68|  3.2668e-01|   -2.608104|    0.273876|    0.066715|  8.8777e+00|  1.7300e+01|  1.7154e+01|
|          69|  3.2570e-01|   -2.599009|    0.278370|    0.065334|  9.7655e+00|  1.9030e+01|  1.8870e+01|
|          70|  3.2480e-01|   -2.587770|    0.282956|    0.064102|  1.0742e+01|  2.0933e+01|  2.0757e+01|
|          71|  3.2628e-01|   -2.575793|    0.287610|    0.063071|  1.1816e+01|  2.3026e+01|  2.2833e+01|
|          72|  3.2760e-01|   -2.563548|    0.292340|    0.062290|  1.2998e+01|  2.5329e+01|  2.5116e+01|
|          73|  3.2670e-01|   -2.551470|    0.297208|    0.061798|  1.4298e+01|  2.7862e+01|  2.7627e+01|
|          74|  3.2583e-01|   -2.539994|    0.302362|    0.061612|  1.5727e+01|  3.0648e+01|  3.0390e+01|
|          75|  3.2509e-01|   -2.529558|    0.308071|    0.061716|  1.7300e+01|  3.3713e+01|  3.3429e+01|
|          76|  3.2812e-01|   -2.520437|    0.314754|    0.062051|  1.9030e+01|  3.7084e+01|  3.6772e+01|
|          77|  3.2716e-01|   -2.513346|    0.322968|    0.062509|  9.5151e+00|  1.8542e+01|  1.8386e+01|
|          78|  3.2633e-01|   -2.508308|    0.327318|    0.062732|  1.0467e+01|  2.0396e+01|  2.0225e+01|
|          79|  3.2552e-01|   -2.505089|    0.332474|    0.062962|  1.1513e+01|  2.2436e+01|  2.2247e+01|
|          80|  3.2473e-01|   -2.501006|    0.338633|    0.063169|  1.2665e+01|  2.4680e+01|  2.4472e+01|
|          81|  3.2395e-01|   -2.497355|    0.346006|    0.063307|  1.3931e+01|  2.7148e+01|  2.6919e+01|
|          82|  3.2558e-01|   -2.494363|    0.354806|    0.063320|  1.5324e+01|  2.9862e+01|  2.9611e+01|
|          83|  3.2625e-01|   -2.491849|    0.365205|    0.063143|  1.6856e+01|  3.2849e+01|  3.2572e+01|
|          84|  3.2550e-01|   -2.489513|    0.377239|    0.062700|  1.8542e+01|  3.6133e+01|  3.5829e+01|
|          85|  3.2475e-01|   -2.487162|    0.390749|    0.061916|  1.8542e+01|  3.6133e+01|  3.5829e+01|
|          86|  3.2402e-01|   -2.486015|    0.404039|    0.060852|  1.8542e+01|  3.6133e+01|  3.5829e+01|
|          87|  3.2331e-01|   -2.483120|    0.416619|    0.059534|  2.0396e+01|  3.9747e+01|  3.9412e+01|
|          88|  3.2262e-01|   -2.479928|    0.429050|    0.057822|  1.0198e+01|  1.9873e+01|  1.9706e+01|
|          89|  3.2211e-01|   -2.474886|    0.434858|    0.056913|  1.1218e+01|  2.1861e+01|  2.1677e+01|
|          90|  3.2405e-01|   -2.472800|    0.440697|    0.055850|  1.2340e+01|  2.4047e+01|  2.3844e+01|
|          91|  3.2331e-01|   -2.468419|    0.446386|    0.054612|  1.3574e+01|  2.6451e+01|  2.6229e+01|
|          92|  3.2268e-01|   -2.462516|    0.451743|    0.053189|  1.4931e+01|  2.9097e+01|  2.8852e+01|
|          93|  3.2205e-01|   -2.455967|    0.456588|    0.051577|  1.6424e+01|  3.2006e+01|  3.1737e+01|
|          94|  3.2143e-01|   -2.449869|    0.460811|    0.049789|  1.8067e+01|  3.5207e+01|  3.4911e+01|
|          95|  3.2082e-01|   -2.443266|    0.464458|    0.047855|  1.9873e+01|  3.8728e+01|  3.8402e+01|
|          96|  3.2257e-01|   -2.436699|    0.467801|    0.045829|  9.9367e+00|  1.9364e+01|  1.9201e+01|
|          97|  3.2188e-01|   -2.430265|    0.469388|    0.044850|  1.0930e+01|  2.1300e+01|  2.1121e+01|
|          98|  3.2130e-01|   -2.427378|    0.471119|    0.043822|  1.2023e+01|  2.3430e+01|  2.3233e+01|
|          99|  3.2073e-01|   -2.422445|    0.473134|    0.042756|  1.3226e+01|  2.5773e+01|  2.5556e+01|
|         100|  3.2015e-01|   -2.416350|    0.475639|    0.041669|  1.4548e+01|  2.8351e+01|  2.8112e+01|
|         101|  3.1964e-01|   -2.409977|    0.478920|    0.040585|  1.6003e+01|  3.1186e+01|  3.0923e+01|
|         102|  3.1909e-01|   -2.403576|    0.483340|    0.039532|  1.7603e+01|  3.4304e+01|  3.4015e+01|
|         103|  3.1877e-01|   -2.396998|    0.489312|    0.038535|  8.8017e+00|  1.7152e+01|  1.7008e+01|
|         104|  3.2056e-01|   -2.390456|    0.492567|    0.038072|  9.6819e+00|  1.8867e+01|  1.8708e+01|
|         105|  3.2000e-01|   -2.386528|    0.496514|    0.037610|  1.0650e+01|  2.0754e+01|  2.0579e+01|
|         106|  3.1948e-01|   -2.382016|    0.501309|    0.037153|  1.1715e+01|  2.2829e+01|  2.2637e+01|
|         107|  3.1898e-01|   -2.377226|    0.507108|    0.036704|  1.2887e+01|  2.5112e+01|  2.4901e+01|
|         108|  3.1849e-01|   -2.372209|    0.514081|    0.036269|  1.4175e+01|  2.7624e+01|  2.7391e+01|
|         109|  3.2001e-01|   -2.367447|    0.522354|    0.035844|  1.0000e+00|  1.0000e+00|  1.0000e+00|
|         110|  3.1895e-01|   -2.363393|    0.522641|    0.035827|  1.1000e+00|  1.1000e+00|  1.1000e+00|
|         111|  3.1768e-01|   -2.363594|    0.522960|    0.035809|  1.2100e+00|  1.2100e+00|  1.2100e+00|
|         112|  3.1656e-01|   -2.363665|    0.523314|    0.035790|  1.3310e+00|  1.3310e+00|  1.3310e+00|
|         113|  3.1547e-01|   -2.363654|    0.523707|    0.035769|  1.4641e+00|  1.4641e+00|  1.4641e+00|
|         114|  3.1439e-01|   -2.363570|    0.524142|    0.035746|  1.6105e+00|  1.6105e+00|  1.6105e+00|
|         115|  3.1333e-01|   -2.363417|    0.524625|    0.035722|  1.7716e+00|  1.7716e+00|  1.7716e+00|
|         116|  3.1227e-01|   -2.363197|    0.525160|    0.035696|  1.9487e+00|  1.9487e+00|  1.9487e+00|
|         117|  3.1124e-01|   -2.362907|    0.525753|    0.035669|  2.1436e+00|  2.1436e+00|  2.1436e+00|
|         118|  3.1033e-01|   -2.362558|    0.526409|    0.035639|  2.3579e+00|  2.3579e+00|  2.3579e+00|
|         119|  3.0944e-01|   -2.362160|    0.527136|    0.035607|  2.5937e+00|  2.5937e+00|  2.5937e+00|
|         120|  3.1028e-01|   -2.361683|    0.527941|    0.035573|  2.8531e+00|  2.8531e+00|  2.8531e+00|
|         121|  3.1114e-01|   -2.361236|    0.528834|    0.035536|  3.1384e+00|  3.1384e+00|  3.1384e+00|
|         122|  3.1023e-01|   -2.360616|    0.529824|    0.035497|  3.4523e+00|  3.4523e+00|  3.4523e+00|
|         123|  3.0936e-01|   -2.360093|    0.530924|    0.035454|  3.7975e+00|  3.7975e+00|  3.7975e+00|
|         124|  3.0861e-01|   -2.359535|    0.532143|    0.035408|  4.1772e+00|  4.1772e+00|  4.1772e+00|
|         125|  3.0788e-01|   -2.358874|    0.533493|    0.035359|  4.5950e+00|  4.5950e+00|  4.5950e+00|
|         126|  3.0717e-01|   -2.358139|    0.534989|    0.035305|  5.0545e+00|  5.0545e+00|  5.0545e+00|
|         127|  3.0708e-01|   -2.357327|    0.536649|    0.035247|  5.5599e+00|  5.5599e+00|  5.5599e+00|
|         128|  3.0989e-01|   -2.356488|    0.538491|    0.035186|  6.1159e+00|  6.1159e+00|  6.1159e+00|
|         129|  3.0968e-01|   -2.355641|    0.540538|    0.035119|  6.7275e+00|  6.7275e+00|  6.7275e+00|
|         130|  3.0915e-01|   -2.354781|    0.542810|    0.035048|  7.4002e+00|  7.4002e+00|  7.4002e+00|
|         131|  3.0865e-01|   -2.353798|    0.545334|    0.034972|  8.1403e+00|  8.1403e+00|  8.1403e+00|
|         132|  3.0817e-01|   -2.353134|    0.548123|    0.034886|  8.9543e+00|  8.9543e+00|  8.9543e+00|
|         133|  3.0799e-01|   -2.352463|    0.551195|    0.034790|  9.8497e+00|  9.8497e+00|  9.8497e+00|
|         134|  3.1081e-01|   -2.351879|    0.554579|    0.034683|  1.0835e+01|  1.0835e+01|  1.0835e+01|
|         135|  3.1035e-01|   -2.351443|    0.558317|    0.034564|  1.1918e+01|  1.1918e+01|  1.1918e+01|
|         136|  3.0997e-01|   -2.351368|    0.562449|    0.034433|  1.3110e+01|  1.3110e+01|  1.3110e+01|
|         137|  3.0959e-01|   -2.351664|    0.566980|    0.034286|  1.4421e+01|  1.4421e+01|  1.4421e+01|
|         138|  3.0924e-01|   -2.352461|    0.571906|    0.034116|  1.5863e+01|  1.5863e+01|  1.5863e+01|
|         139|  3.1009e-01|   -2.353895|    0.577224|    0.033916|  1.7449e+01|  1.7449e+01|  1.7449e+01|
|         140|  3.1141e-01|   -2.356197|    0.582970|    0.033688|  1.9194e+01|  1.9194e+01|  1.9194e+01|
|         141|  3.1104e-01|   -2.359161|    0.589085|    0.033416|  2.1114e+01|  2.1114e+01|  2.1114e+01|
|         142|  3.1069e-01|   -2.362068|    0.595462|    0.033077|  2.3225e+01|  2.3225e+01|  2.3225e+01|
|         143|  3.1035e-01|   -2.369694|    0.602070|    0.032663|  2.5548e+01|  2.5548e+01|  2.5548e+01|
|         144|  3.1076e-01|   -2.376774|    0.608862|    0.032165|  2.8102e+01|  2.8102e+01|  2.8102e+01|
|         145|  3.1145e-01|   -2.388123|    0.615768|    0.031576|  3.0913e+01|  3.0913e+01|  3.0913e+01|
|         146|  3.1112e-01|   -2.401276|    0.622613|    0.030880|  3.4004e+01|  3.4004e+01|  3.4004e+01|
|         147|  3.1096e-01|   -2.419992|    0.629512|    0.030119|  1.7002e+01|  1.7002e+01|  1.7002e+01|
|         148|  3.1063e-01|   -2.439249|    0.632650|    0.029711|  1.8702e+01|  1.8702e+01|  1.8702e+01|
|         149|  3.1217e-01|   -2.451696|    0.635828|    0.029255|  2.0572e+01|  2.0572e+01|  2.0572e+01|
|         150|  3.1211e-01|   -2.464690|    0.638981|    0.028740|  2.2630e+01|  2.2630e+01|  2.2630e+01|
|         151|  3.1184e-01|   -2.477967|    0.642112|    0.028173|  2.4893e+01|  2.4893e+01|  2.4893e+01|
|         152|  3.1153e-01|   -2.493410|    0.645218|    0.027557|  2.7382e+01|  2.7382e+01|  2.7382e+01|
|         153|  3.1122e-01|   -2.507762|    0.648255|    0.026892|  2.7382e+01|  3.0120e+01|  3.0120e+01|
|         154|  3.1110e-01|   -2.527955|    0.651589|    0.026246|  3.0120e+01|  3.3132e+01|  3.3131e+01|
|         155|  3.1275e-01|   -2.544059|    0.655369|    0.025643|  3.0120e+01|  3.6445e+01|  3.6444e+01|
|         156|  3.1241e-01|   -2.560575|    0.660030|    0.025147|  1.5060e+01|  1.8223e+01|  1.8222e+01|
|         157|  3.1210e-01|   -2.576771|    0.661785|    0.024817|  1.6566e+01|  2.0045e+01|  2.0044e+01|
|         158|  3.1180e-01|   -2.583921|    0.663468|    0.024438|  1.8223e+01|  2.2049e+01|  2.2049e+01|
|         159|  3.1151e-01|   -2.589337|    0.665362|    0.024049|  2.0045e+01|  2.4254e+01|  2.4254e+01|
|         160|  3.1272e-01|   -2.595348|    0.667647|    0.023682|  2.2049e+01|  2.6680e+01|  2.6679e+01|
|         161|  3.1240e-01|   -2.599207|    0.670275|    0.023337|  2.4254e+01|  2.9348e+01|  2.9346e+01|
|         162|  3.1211e-01|   -2.591750|    0.673551|    0.023070|  2.6680e+01|  3.2282e+01|  3.2280e+01|
|         163|  3.1183e-01|   -2.598087|    0.677604|    0.022905|  2.9348e+01|  3.5511e+01|  3.5506e+01|
|         164|  3.1154e-01|   -2.601953|    0.682627|    0.022886|  2.9348e+01|  3.5511e+01|  3.5506e+01|
|         165|  3.1275e-01|   -2.605141|    0.687143|    0.022840|  1.4674e+01|  1.7755e+01|  1.7753e+01|
|         166|  3.1287e-01|   -2.607195|    0.688534|    0.022673|  1.6141e+01|  1.9531e+01|  1.9528e+01|
|         167|  3.1258e-01|   -2.604403|    0.689750|    0.022460|  1.7755e+01|  2.1484e+01|  2.1481e+01|
|         168|  3.1230e-01|   -2.617658|    0.691002|    0.022224|  1.9531e+01|  2.3632e+01|  2.3629e+01|
|         169|  3.1203e-01|   -2.620301|    0.692877|    0.022057|  2.1484e+01|  2.5996e+01|  2.5992e+01|
|         170|  3.1174e-01|   -2.625530|    0.695545|    0.021991|  2.3632e+01|  2.8595e+01|  2.8590e+01|
|         171|  3.1266e-01|   -2.631913|    0.698704|    0.021985|  2.3632e+01|  3.1455e+01|  3.1448e+01|
|         172|  3.1304e-01|   -2.639058|    0.702548|    0.022092|  2.5996e+01|  3.4600e+01|  3.4591e+01|
|         173|  3.1276e-01|   -2.649184|    0.706171|    0.022199|  1.2998e+01|  1.7300e+01|  1.7295e+01|
|         174|  3.1249e-01|   -2.660608|    0.707289|    0.022148|  1.4298e+01|  1.9030e+01|  1.9025e+01|
|         175|  3.1222e-01|   -2.670609|    0.708068|    0.022050|  1.5727e+01|  2.0933e+01|  2.0927e+01|
|         176|  3.1194e-01|   -2.679854|    0.708476|    0.021912|  1.7300e+01|  2.3026e+01|  2.3020e+01|
|         177|  3.1366e-01|   -2.689255|    0.708935|    0.021801|  1.9030e+01|  2.5329e+01|  2.5321e+01|
|         178|  3.1333e-01|   -2.700063|    0.709453|    0.021727|  2.0933e+01|  2.7862e+01|  2.7853e+01|
|         179|  3.1309e-01|   -2.712701|    0.710238|    0.021736|  2.3026e+01|  3.0648e+01|  3.0637e+01|
|         180|  3.1282e-01|   -2.727058|    0.711235|    0.021840|  2.5329e+01|  3.3713e+01|  3.3699e+01|
|         181|  3.1256e-01|   -2.743551|    0.712692|    0.022076|  1.2665e+01|  1.6856e+01|  1.6850e+01|
|         182|  3.1229e-01|   -2.760711|    0.712718|    0.022099|  1.3931e+01|  1.8542e+01|  1.8534e+01|
|         183|  3.1368e-01|   -2.777507|    0.712359|    0.022094|  1.5324e+01|  2.0396e+01|  2.0388e+01|
|         184|  3.1393e-01|   -2.791285|    0.711627|    0.022059|  1.6856e+01|  2.2436e+01|  2.2426e+01|
|         185|  3.1365e-01|   -2.802224|    0.710680|    0.022023|  1.8542e+01|  2.4680e+01|  2.4669e+01|
|         186|  3.1337e-01|   -2.812567|    0.709637|    0.022015|  2.0396e+01|  2.7148e+01|  2.7135e+01|
|         187|  3.1310e-01|   -2.833563|    0.708532|    0.022046|  2.2436e+01|  2.9862e+01|  2.9848e+01|
|         188|  3.1284e-01|   -2.852070|    0.707712|    0.022184|  2.4680e+01|  3.2849e+01|  3.2831e+01|
|         189|  3.1424e-01|   -2.866926|    0.706971|    0.022419|  1.2340e+01|  1.6424e+01|  1.6416e+01|
|         190|  3.1395e-01|   -2.884066|    0.706425|    0.022518|  1.3574e+01|  1.8067e+01|  1.8057e+01|
|         191|  3.1370e-01|   -2.902939|    0.705669|    0.022625|  1.4931e+01|  1.9873e+01|  1.9863e+01|
|         192|  3.1345e-01|   -2.915574|    0.704682|    0.022743|  1.6424e+01|  2.1861e+01|  2.1849e+01|
|         193|  3.1320e-01|   -2.927442|    0.703553|    0.022894|  1.8067e+01|  2.4047e+01|  2.4033e+01|
|         194|  3.1437e-01|   -2.911143|    0.702223|    0.023077|  1.9873e+01|  2.6451e+01|  2.6436e+01|
|         195|  3.1407e-01|   -2.942257|    0.700736|    0.023311|  2.1861e+01|  2.9097e+01|  2.9079e+01|
|         196|  3.1382e-01|   -2.959559|    0.699305|    0.023645|  2.4047e+01|  3.2006e+01|  3.1986e+01|
|         197|  3.1358e-01|   -2.968133|    0.697789|    0.024069|  2.4047e+01|  3.2006e+01|  3.1986e+01|
|         198|  3.1333e-01|   -2.980796|    0.696103|    0.024511|  2.4047e+01|  3.2006e+01|  3.1986e+01|
|         199|  3.1308e-01|   -2.998442|    0.694280|    0.024973|  1.2023e+01|  1.6003e+01|  1.5993e+01|
|         200|  3.1369e-01|   -3.007246|    0.693027|    0.025160|  1.3226e+01|  1.7603e+01|  1.7593e+01|
|         201|  3.1409e-01|   -3.013186|    0.691516|    0.025361|  1.4548e+01|  1.9364e+01|  1.9352e+01|
|         202|  3.1384e-01|   -3.018629|    0.689755|    0.025579|  1.6003e+01|  2.1300e+01|  2.1287e+01|
|         203|  3.1361e-01|   -3.025396|    0.687838|    0.025829|  1.7603e+01|  2.3430e+01|  2.3415e+01|
|         204|  3.1336e-01|   -3.029343|    0.685764|    0.026118|  1.9364e+01|  2.5773e+01|  2.5757e+01|
|         205|  3.1313e-01|   -3.029011|    0.683421|    0.026434|  2.1300e+01|  2.8351e+01|  2.8332e+01|
|         206|  3.1288e-01|   -3.028202|    0.681001|    0.026810|  2.3430e+01|  3.1186e+01|  3.1165e+01|
|         207|  3.1286e-01|   -3.030369|    0.678631|    0.027271|  2.3430e+01|  3.1186e+01|  3.1165e+01|
|         208|  3.1365e-01|   -3.032077|    0.676275|    0.027730|  2.3430e+01|  3.1186e+01|  3.1165e+01|
|         209|  3.1340e-01|   -3.040762|    0.673776|    0.028158|  2.3430e+01|  3.1186e+01|  3.1165e+01|
|         210|  3.1318e-01|   -3.049021|    0.671048|    0.028538|  2.3430e+01|  3.1186e+01|  3.1165e+01|
|         211|  3.1295e-01|   -3.056281|    0.668434|    0.028915|  2.3430e+01|  3.1186e+01|  3.1165e+01|
|         212|  3.1273e-01|   -3.065280|    0.665941|    0.029288|  2.3430e+01|  3.1186e+01|  3.1165e+01|
|         213|  3.1251e-01|   -3.075547|    0.663703|    0.029670|  2.3430e+01|  3.1186e+01|  3.1165e+01|
|         214|  3.1339e-01|   -3.086464|    0.661546|    0.030032|  2.5773e+01|  3.4304e+01|  3.4281e+01|
|         215|  3.1326e-01|   -3.097486|    0.659721|    0.030468|  1.2887e+01|  1.7152e+01|  1.7141e+01|
|         216|  3.1304e-01|   -3.110293|    0.658733|    0.030663|  1.4175e+01|  1.8867e+01|  1.8855e+01|
|         217|  3.1282e-01|   -3.125802|    0.657666|    0.030869|  1.5593e+01|  2.0754e+01|  2.0740e+01|
|         218|  3.1261e-01|   -3.135431|    0.656579|    0.031092|  1.7152e+01|  2.2829e+01|  2.2814e+01|
|         219|  3.1239e-01|   -3.144548|    0.655417|    0.031321|  1.8867e+01|  2.5112e+01|  2.5095e+01|
|         220|  3.1219e-01|   -3.153533|    0.654153|    0.031549|  2.0754e+01|  2.7624e+01|  2.7605e+01|
|         221|  3.1291e-01|   -3.165839|    0.652989|    0.031799|  2.2829e+01|  3.0386e+01|  3.0365e+01|
|         222|  3.1321e-01|   -3.179252|    0.652029|    0.032079|  2.5112e+01|  3.3425e+01|  3.3401e+01|
|         223|  3.1299e-01|   -3.195643|    0.651357|    0.032388|  1.2556e+01|  1.6712e+01|  1.6701e+01|
|         224|  3.1278e-01|   -3.215013|    0.650996|    0.032527|  1.3812e+01|  1.8383e+01|  1.8371e+01|
|         225|  3.1258e-01|   -3.231985|    0.650661|    0.032675|  1.5193e+01|  2.0222e+01|  2.0208e+01|
|         226|  3.1237e-01|   -3.244813|    0.650337|    0.032828|  1.6712e+01|  2.2244e+01|  2.2228e+01|
|         227|  3.1218e-01|   -3.252747|    0.650009|    0.032980|  1.8383e+01|  2.4468e+01|  2.4451e+01|
|         228|  3.1348e-01|   -3.261438|    0.649767|    0.033138|  2.0222e+01|  2.6915e+01|  2.6896e+01|
|         229|  3.1351e-01|   -3.273904|    0.649561|    0.033288|  2.2244e+01|  2.9607e+01|  2.9585e+01|
|         230|  3.1329e-01|   -3.289540|    0.649262|    0.033407|  2.2244e+01|  2.9607e+01|  2.9585e+01|
|         231|  3.1307e-01|   -3.300636|    0.649125|    0.033509|  2.2244e+01|  2.9607e+01|  2.9585e+01|
|         232|  3.1286e-01|   -3.316003|    0.649088|    0.033587|  2.2244e+01|  2.9607e+01|  2.9585e+01|
|         233|  3.1265e-01|   -3.332987|    0.649118|    0.033634|  2.2244e+01|  2.9607e+01|  2.9585e+01|
|         234|  3.1384e-01|   -3.347175|    0.649330|    0.033665|  2.2244e+01|  2.9607e+01|  2.9585e+01|
|         235|  3.1394e-01|   -3.359809|    0.649732|    0.033679|  1.1122e+01|  1.4803e+01|  1.4793e+01|
|         236|  3.1372e-01|   -3.373710|    0.649962|    0.033677|  1.2234e+01|  1.6284e+01|  1.6272e+01|
|         237|  3.1351e-01|   -3.390873|    0.650273|    0.033672|  1.3458e+01|  1.7912e+01|  1.7899e+01|
|         238|  3.1330e-01|   -3.397629|    0.650618|    0.033651|  1.4803e+01|  1.9703e+01|  1.9689e+01|
|         239|  3.1309e-01|   -3.401570|    0.651011|    0.033611|  1.6284e+01|  2.1674e+01|  2.1658e+01|
|         240|  3.1410e-01|   -3.401044|    0.651393|    0.033536|  1.7912e+01|  2.3841e+01|  2.3823e+01|
|         241|  3.1438e-01|   -3.406162|    0.651829|    0.033427|  1.9703e+01|  2.6225e+01|  2.6206e+01|
|         242|  3.1422e-01|   -3.409198|    0.652410|    0.033283|  2.1674e+01|  2.8848e+01|  2.8826e+01|
|         243|  3.1402e-01|   -3.410590|    0.653162|    0.033095|  1.0837e+01|  1.4424e+01|  1.4413e+01|
|         244|  3.1381e-01|   -3.418413|    0.653497|    0.032984|  1.1921e+01|  1.5866e+01|  1.5854e+01|
|         245|  3.1361e-01|   -3.436905|    0.654024|    0.032869|  1.3113e+01|  1.7453e+01|  1.7440e+01|
|         246|  3.1475e-01|   -3.440515|    0.654724|    0.032742|  1.4424e+01|  1.9198e+01|  1.9184e+01|
|         247|  3.1483e-01|   -3.439601|    0.655566|    0.032591|  1.5866e+01|  2.1118e+01|  2.1102e+01|
|         248|  3.1462e-01|   -3.442253|    0.656515|    0.032405|  1.7453e+01|  2.3230e+01|  2.3212e+01|
|         249|  3.1441e-01|   -3.443736|    0.657673|    0.032185|  1.9198e+01|  2.5553e+01|  2.5533e+01|
|         250|  3.1420e-01|   -3.448783|    0.659068|    0.031923|  2.1118e+01|  2.8108e+01|  2.8086e+01|
|         251|  3.1400e-01|   -3.449427|    0.660812|    0.031622|  1.0559e+01|  1.4054e+01|  1.4043e+01|
|         252|  3.1509e-01|   -3.454596|    0.661741|    0.031466|  1.1615e+01|  1.5459e+01|  1.5447e+01|
|         253|  3.1485e-01|   -3.471181|    0.662827|    0.031294|  1.2776e+01|  1.7005e+01|  1.6992e+01|
|         254|  3.1466e-01|   -3.474952|    0.664072|    0.031098|  1.4054e+01|  1.8706e+01|  1.8691e+01|
|         255|  3.1447e-01|   -3.472458|    0.665483|    0.030876|  1.5459e+01|  2.0576e+01|  2.0560e+01|
|         256|  3.1428e-01|   -3.466755|    0.667000|    0.030616|  1.7005e+01|  2.2634e+01|  2.2616e+01|
|         257|  3.1501e-01|   -3.463987|    0.668618|    0.030313|  1.8706e+01|  2.4897e+01|  2.4878e+01|
|         258|  3.1483e-01|   -3.464354|    0.670389|    0.029962|  2.0576e+01|  2.7387e+01|  2.7365e+01|
|         259|  3.1463e-01|   -3.468748|    0.672279|    0.029548|  2.2634e+01|  3.0126e+01|  3.0101e+01|
|         260|  3.1444e-01|   -3.472280|    0.674371|    0.029065|  1.1317e+01|  1.5063e+01|  1.5051e+01|
|         261|  3.1425e-01|   -3.472143|    0.675467|    0.028822|  1.2449e+01|  1.6569e+01|  1.6556e+01|
|         262|  3.1428e-01|   -3.485812|    0.676670|    0.028549|  1.3694e+01|  1.8226e+01|  1.8211e+01|
|         263|  3.1505e-01|   -3.487798|    0.677979|    0.028239|  1.5063e+01|  2.0049e+01|  2.0032e+01|
|         264|  3.1485e-01|   -3.482883|    0.679509|    0.027894|  1.6569e+01|  2.2054e+01|  2.2036e+01|
|         265|  3.1466e-01|   -3.479011|    0.681198|    0.027494|  1.8226e+01|  2.4259e+01|  2.4239e+01|
|         266|  3.1448e-01|   -3.477575|    0.682996|    0.027022|  2.0049e+01|  2.6685e+01|  2.6663e+01|
|         267|  3.1429e-01|   -3.474068|    0.684997|    0.026479|  2.2054e+01|  2.9353e+01|  2.9329e+01|
|         268|  3.1412e-01|   -3.468743|    0.687227|    0.025854|  2.4259e+01|  3.2289e+01|  3.2261e+01|
|         269|  3.1451e-01|   -3.464180|    0.689759|    0.025136|  2.4259e+01|  3.2289e+01|  3.2261e+01|
|         270|  3.1494e-01|   -3.459144|    0.692416|    0.024389|  2.4259e+01|  3.2289e+01|  3.2261e+01|
|         271|  3.1475e-01|   -3.461007|    0.695066|    0.023608|  2.4259e+01|  3.2289e+01|  3.2261e+01|
|         272|  3.1457e-01|   -3.460590|    0.697769|    0.022797|  2.6685e+01|  3.5518e+01|  3.5487e+01|
|         273|  3.1439e-01|   -3.458754|    0.700737|    0.021868|  1.3342e+01|  1.7759e+01|  1.7744e+01|
|         274|  3.1421e-01|   -3.458530|    0.702181|    0.021390|  1.4677e+01|  1.9535e+01|  1.9518e+01|
|         275|  3.1404e-01|   -3.478948|    0.703820|    0.020861|  1.6144e+01|  2.1488e+01|  2.1470e+01|
|         276|  3.1386e-01|   -3.481442|    0.705636|    0.020273|  1.7759e+01|  2.3637e+01|  2.3617e+01|
|         277|  3.1416e-01|   -3.483033|    0.707637|    0.019617|  1.9535e+01|  2.6001e+01|  2.5978e+01|
|         278|  3.1467e-01|   -3.481525|    0.709892|    0.018890|  2.1488e+01|  2.8601e+01|  2.8576e+01|
|         279|  3.1449e-01|   -3.480560|    0.712432|    0.018080|  2.3637e+01|  3.1461e+01|  3.1434e+01|
|         280|  3.1431e-01|   -3.477830|    0.715283|    0.017193|  2.6001e+01|  3.4607e+01|  3.4577e+01|
|         281|  3.1415e-01|   -3.472969|    0.718511|    0.016220|  1.3000e+01|  1.7303e+01|  1.7288e+01|
|         282|  3.1398e-01|   -3.476532|    0.720138|    0.015734|  1.4300e+01|  1.9034e+01|  1.9017e+01|
|         283|  3.1408e-01|   -3.489852|    0.721966|    0.015207|  1.5730e+01|  2.0937e+01|  2.0919e+01|
|         284|  3.1468e-01|   -3.496101|    0.724000|    0.014634|  1.7303e+01|  2.3031e+01|  2.3011e+01|
|         285|  3.1450e-01|   -3.500374|    0.726282|    0.014013|  1.9034e+01|  2.5334e+01|  2.5312e+01|
|         286|  3.1433e-01|   -3.499576|    0.728818|    0.013343|  2.0937e+01|  2.7867e+01|  2.7843e+01|
|         287|  3.1417e-01|   -3.500742|    0.731695|    0.012624|  2.3031e+01|  3.0654e+01|  3.0628e+01|
|         288|  3.1400e-01|   -3.504021|    0.734939|    0.011856|  2.5334e+01|  3.3720e+01|  3.3690e+01|
|         289|  3.1384e-01|   -3.499344|    0.738465|    0.011051|  1.2667e+01|  1.6860e+01|  1.6845e+01|
|         290|  3.1459e-01|   -3.495996|    0.740233|    0.010655|  1.3934e+01|  1.8546e+01|  1.8530e+01|
|         291|  3.1439e-01|   -3.512214|    0.742183|    0.010231|  1.5327e+01|  2.0400e+01|  2.0383e+01|
|         292|  3.1423e-01|   -3.518015|    0.744287|    0.009784|  1.6860e+01|  2.2440e+01|  2.2421e+01|
|         293|  3.1406e-01|   -3.518096|    0.746594|    0.009310|  1.8546e+01|  2.4684e+01|  2.4663e+01|
|         294|  3.1391e-01|   -3.522467|    0.749146|    0.008811|  2.0400e+01|  2.7153e+01|  2.7129e+01|
|         295|  3.1375e-01|   -3.525604|    0.751909|    0.008294|  2.2440e+01|  2.9868e+01|  2.9842e+01|
|         296|  3.1431e-01|   -3.524190|    0.754953|    0.007766|  2.4684e+01|  3.2855e+01|  3.2826e+01|
|         297|  3.1438e-01|   -3.529826|    0.758214|    0.007242|  1.2342e+01|  1.6427e+01|  1.6413e+01|
|         298|  3.1421e-01|   -3.532312|    0.759853|    0.006990|  1.3576e+01|  1.8070e+01|  1.8055e+01|
|         299|  3.1406e-01|   -3.543543|    0.761609|    0.006735|  1.4934e+01|  1.9877e+01|  1.9860e+01|
|         300|  3.1390e-01|   -3.549718|    0.763468|    0.006481|  1.6427e+01|  2.1865e+01|  2.1846e+01|
|         301|  3.1375e-01|   -3.552321|    0.765472|    0.006231|  1.8070e+01|  2.4051e+01|  2.4031e+01|
|         302|  3.1359e-01|   -3.552000|    0.767625|    0.005991|  1.9877e+01|  2.6457e+01|  2.6434e+01|
|         303|  3.1468e-01|   -3.553061|    0.769852|    0.005775|  2.1865e+01|  2.9102e+01|  2.9077e+01|
|         304|  3.1448e-01|   -3.556175|    0.772183|    0.005596|  2.4051e+01|  3.2013e+01|  3.1985e+01|
|         305|  3.1432e-01|   -3.559463|    0.774587|    0.005474|  2.4051e+01|  3.2013e+01|  3.1985e+01|
|         306|  3.1415e-01|   -3.563767|    0.776808|    0.005428|  1.2026e+01|  1.6006e+01|  1.5992e+01|
|         307|  3.1399e-01|   -3.568069|    0.777876|    0.005420|  1.3228e+01|  1.7607e+01|  1.7592e+01|
|         308|  3.1480e-01|   -3.575411|    0.778987|    0.005437|  1.4551e+01|  1.9368e+01|  1.9351e+01|
|         309|  3.1461e-01|   -3.576818|    0.780138|    0.005486|  1.6006e+01|  2.1304e+01|  2.1286e+01|
|         310|  3.1445e-01|   -3.577845|    0.781309|    0.005573|  1.7607e+01|  2.3435e+01|  2.3414e+01|
|         311|  3.1430e-01|   -3.577324|    0.782495|    0.005709|  1.9368e+01|  2.5778e+01|  2.5756e+01|
|         312|  3.1414e-01|   -3.578680|    0.783680|    0.005906|  2.1304e+01|  2.8356e+01|  2.8331e+01|
|         313|  3.1400e-01|   -3.579696|    0.784836|    0.006179|  2.3435e+01|  3.1192e+01|  3.1165e+01|
|         314|  3.1385e-01|   -3.579370|    0.785930|    0.006548|  2.3435e+01|  3.1192e+01|  3.1165e+01|
|         315|  3.1371e-01|   -3.577487|    0.786857|    0.006980|  2.3435e+01|  3.1192e+01|  3.1165e+01|
|         316|  3.1445e-01|   -3.578228|    0.787614|    0.007474|  2.3435e+01|  3.1192e+01|  3.1165e+01|
|         317|  3.1436e-01|   -3.578160|    0.788228|    0.008026|  2.3435e+01|  3.1192e+01|  3.1165e+01|
|         318|  3.1421e-01|   -3.579074|    0.788699|    0.008632|  2.3435e+01|  3.1192e+01|  3.1165e+01|
|         319|  3.1406e-01|   -3.579431|    0.789003|    0.009289|  2.3435e+01|  3.1192e+01|  3.1165e+01|
|         320|  3.1392e-01|   -3.577903|    0.789150|    0.009991|  2.3435e+01|  3.1192e+01|  3.1165e+01|
|         321|  3.1378e-01|   -3.578081|    0.789145|    0.010734|  2.3435e+01|  3.1192e+01|  3.1165e+01|
|         322|  3.1415e-01|   -3.578979|    0.788977|    0.011516|  2.3435e+01|  3.1192e+01|  3.1165e+01|
|         323|  3.1462e-01|   -3.579035|    0.788633|    0.012330|  2.3435e+01|  3.1192e+01|  3.1165e+01|
|         324|  3.1445e-01|   -3.580243|    0.788125|    0.013173|  2.3435e+01|  3.1192e+01|  3.1165e+01|
|         325|  3.1430e-01|   -3.580098|    0.787450|    0.014039|  2.3435e+01|  3.1192e+01|  3.1165e+01|
|         326|  3.1415e-01|   -3.580391|    0.786604|    0.014924|  2.3435e+01|  3.1192e+01|  3.1165e+01|
|         327|  3.1400e-01|   -3.581656|    0.785592|    0.015823|  2.3435e+01|  3.1192e+01|  3.1165e+01|
|         328|  3.1412e-01|   -3.582782|    0.784421|    0.016730|  2.3435e+01|  3.1192e+01|  3.1165e+01|
|         329|  3.1501e-01|   -3.584342|    0.783093|    0.017639|  2.3435e+01|  3.1192e+01|  3.1165e+01|
|         330|  3.1483e-01|   -3.585333|    0.781610|    0.018546|  2.3435e+01|  3.1192e+01|  3.1165e+01|
|         331|  3.1469e-01|   -3.587053|    0.779975|    0.019444|  2.3435e+01|  3.1192e+01|  3.1165e+01|
|         332|  3.1457e-01|   -3.589004|    0.778206|    0.020327|  2.3435e+01|  3.1192e+01|  3.1165e+01|
|         333|  3.1442e-01|   -3.591146|    0.776306|    0.021191|  2.3435e+01|  3.1192e+01|  3.1165e+01|
|         334|  3.1463e-01|   -3.593023|    0.774285|    0.022030|  2.3435e+01|  3.1192e+01|  3.1165e+01|
|         335|  3.1528e-01|   -3.593110|    0.772155|    0.022840|  2.3435e+01|  3.1192e+01|  3.1165e+01|
|         336|  3.1511e-01|   -3.592907|    0.769935|    0.023618|  2.3435e+01|  3.1192e+01|  3.1165e+01|
|         337|  3.1498e-01|   -3.595047|    0.767628|    0.024357|  1.1717e+01|  1.5596e+01|  1.5582e+01|
|         338|  3.1483e-01|   -3.597606|    0.766469|    0.024717|  5.8587e+00|  7.7979e+00|  7.7911e+00|
|         339|  3.1467e-01|   -3.605016|    0.765891|    0.024895|  2.9293e+00|  3.8990e+00|  3.8956e+00|
|         340|  3.1451e-01|   -3.609728|    0.765602|    0.024984|  1.4647e+00|  1.9495e+00|  1.9478e+00|
|         341|  3.1526e-01|   -3.611772|    0.765458|    0.025028|  1.0000e+00|  1.0000e+00|  1.0000e+00|
|         342|  3.1487e-01|   -3.612735|    0.765375|    0.025049|  1.0000e+00|  1.0000e+00|  1.0000e+00|
|         343|  3.1451e-01|   -3.613188|    0.765292|    0.025070|  1.0000e+00|  1.0000e+00|  1.0000e+00|
|         344|  3.1414e-01|   -3.613534|    0.765208|    0.025091|  1.0000e+00|  1.0000e+00|  1.0000e+00|
|         345|  3.1383e-01|   -3.613800|    0.765124|    0.025112|  1.0000e+00|  1.0000e+00|  1.0000e+00|
|         346|  3.1347e-01|   -3.614010|    0.765039|    0.025133|  1.0000e+00|  1.0000e+00|  1.0000e+00|
|         347|  3.1363e-01|   -3.614183|    0.764955|    0.025154|  1.0000e+00|  1.0000e+00|  1.0000e+00|
|         348|  3.1348e-01|   -3.614328|    0.764870|    0.025175|  1.0000e+00|  1.0000e+00|  1.0000e+00|
|         349|  3.1313e-01|   -3.614453|    0.764785|    0.025196|  1.0000e+00|  1.0000e+00|  1.0000e+00|
|         350|  3.1279e-01|   -3.614562|    0.764700|    0.025217|  1.0000e+00|  1.0000e+00|  1.0000e+00|
|         351|  3.1244e-01|   -3.614662|    0.764614|    0.025238|  1.1000e+00|  1.1000e+00|  1.1000e+00|
|         352|  3.1210e-01|   -3.614749|    0.764520|    0.025261|  1.2100e+00|  1.2100e+00|  1.2100e+00|
|         353|  3.1178e-01|   -3.614834|    0.764417|    0.025286|  1.3310e+00|  1.3310e+00|  1.3310e+00|
|         354|  3.1185e-01|   -3.614915|    0.764303|    0.025313|  1.4641e+00|  1.4641e+00|  1.4641e+00|
|         355|  3.1205e-01|   -3.614992|    0.764178|    0.025344|  1.6105e+00|  1.6105e+00|  1.6105e+00|
|         356|  3.1173e-01|   -3.615066|    0.764039|    0.025377|  1.7716e+00|  1.7716e+00|  1.7716e+00|
|         357|  3.1143e-01|   -3.615137|    0.763887|    0.025413|  1.9487e+00|  1.9487e+00|  1.9487e+00|
|         358|  3.1114e-01|   -3.615203|    0.763720|    0.025454|  2.1436e+00|  2.1436e+00|  2.1436e+00|
|         359|  3.1085e-01|   -3.615264|    0.763536|    0.025498|  2.3579e+00|  2.3579e+00|  2.3579e+00|
|         360|  3.1056e-01|   -3.615318|    0.763336|    0.025546|  2.5937e+00|  2.5937e+00|  2.5937e+00|
|         361|  3.1028e-01|   -3.615366|    0.763116|    0.025599|  2.8531e+00|  2.8531e+00|  2.8531e+00|
|         362|  3.1051e-01|   -3.615417|    0.762876|    0.025658|  3.1384e+00|  3.1384e+00|  3.1384e+00|
|         363|  3.1069e-01|   -3.615503|    0.762614|    0.025722|  3.4523e+00|  3.4523e+00|  3.4523e+00|
|         364|  3.1043e-01|   -3.615601|    0.762328|    0.025793|  3.7975e+00|  3.7975e+00|  3.7975e+00|
|         365|  3.1019e-01|   -3.615686|    0.762016|    0.025870|  4.1772e+00|  4.1772e+00|  4.1772e+00|
|         366|  3.0995e-01|   -3.615784|    0.761676|    0.025956|  4.5950e+00|  4.5950e+00|  4.5950e+00|
|         367|  3.0974e-01|   -3.615914|    0.761304|    0.026049|  5.0545e+00|  5.0545e+00|  5.0545e+00|
|         368|  3.0953e-01|   -3.616080|    0.760899|    0.026151|  5.5599e+00|  5.5599e+00|  5.5599e+00|
|         369|  3.0989e-01|   -3.616315|    0.760456|    0.026261|  6.1159e+00|  6.1159e+00|  6.1159e+00|
|         370|  3.1004e-01|   -3.616580|    0.759968|    0.026381|  6.7275e+00|  6.7275e+00|  6.7275e+00|
|         371|  3.0986e-01|   -3.616952|    0.759431|    0.026510|  7.4002e+00|  7.4002e+00|  7.4002e+00|
|         372|  3.0969e-01|   -3.617346|    0.758836|    0.026649|  8.1403e+00|  8.1403e+00|  8.1403e+00|
|         373|  3.0955e-01|   -3.617845|    0.758174|    0.026798|  8.9543e+00|  8.9543e+00|  8.9543e+00|
|         374|  3.0943e-01|   -3.618514|    0.757437|    0.026956|  9.8497e+00|  9.8497e+00|  9.8497e+00|
|         375|  3.1009e-01|   -3.619791|    0.756618|    0.027125|  1.0835e+01|  1.0835e+01|  1.0835e+01|
|         376|  3.0994e-01|   -3.620924|    0.755713|    0.027304|  1.1918e+01|  1.1918e+01|  1.1918e+01|
|         377|  3.0982e-01|   -3.622475|    0.754720|    0.027495|  1.3110e+01|  1.3110e+01|  1.3110e+01|
|         378|  3.0970e-01|   -3.623782|    0.753635|    0.027699|  1.4421e+01|  1.4421e+01|  1.4421e+01|
|         379|  3.0958e-01|   -3.624640|    0.752451|    0.027915|  1.5863e+01|  1.5863e+01|  1.5863e+01|
|         380|  3.0980e-01|   -3.625162|    0.751162|    0.028143|  1.7449e+01|  1.7449e+01|  1.7449e+01|
|         381|  3.1006e-01|   -3.625503|    0.749761|    0.028379|  1.9194e+01|  1.9194e+01|  1.9194e+01|
|         382|  3.0994e-01|   -3.626278|    0.748235|    0.028621|  2.1114e+01|  2.1114e+01|  2.1114e+01|
|         383|  3.0983e-01|   -3.627583|    0.746574|    0.028866|  2.3225e+01|  2.3225e+01|  2.3225e+01|
|         384|  3.0972e-01|   -3.628396|    0.744768|    0.029107|  2.5548e+01|  2.5548e+01|  2.5548e+01|
|         385|  3.0961e-01|   -3.628066|    0.742806|    0.029337|  2.8102e+01|  2.8102e+01|  2.8102e+01|
|         386|  3.0973e-01|   -3.627742|    0.740694|    0.029547|  3.0913e+01|  3.0913e+01|  3.0913e+01|
|         387|  3.1023e-01|   -3.627679|    0.738441|    0.029726|  3.0913e+01|  3.0913e+01|  3.0913e+01|
|         388|  3.1011e-01|   -3.627782|    0.736275|    0.029853|  3.0913e+01|  3.0913e+01|  3.0913e+01|
|         389|  3.0999e-01|   -3.628473|    0.734206|    0.029930|  3.0913e+01|  3.0913e+01|  3.0913e+01|
|         390|  3.0988e-01|   -3.630299|    0.732238|    0.029957|  3.0913e+01|  3.0913e+01|  3.0913e+01|
|         391|  3.0976e-01|   -3.631146|    0.730367|    0.029935|  3.0913e+01|  3.0913e+01|  3.0913e+01|
|         392|  3.0965e-01|   -3.630621|    0.728591|    0.029864|  3.0913e+01|  3.0913e+01|  3.0913e+01|
|         393|  3.0954e-01|   -3.631736|    0.726918|    0.029748|  3.0913e+01|  3.0913e+01|  3.0913e+01|
|         394|  3.1010e-01|   -3.633197|    0.725340|    0.029588|  3.0913e+01|  3.0913e+01|  3.0913e+01|
|         395|  3.0996e-01|   -3.633760|    0.723875|    0.029385|  3.0913e+01|  3.0913e+01|  3.0913e+01|
|         396|  3.0985e-01|   -3.632832|    0.722525|    0.029142|  3.0913e+01|  3.0913e+01|  3.0913e+01|
|         397|  3.0975e-01|   -3.633279|    0.721310|    0.028860|  3.0913e+01|  3.0913e+01|  3.0913e+01|
|         398|  3.0964e-01|   -3.632234|    0.720244|    0.028542|  3.0913e+01|  3.0913e+01|  3.0913e+01|
|         399|  3.0954e-01|   -3.631158|    0.719312|    0.028191|  3.0913e+01|  3.0913e+01|  3.0913e+01|
|         400|  3.0943e-01|   -3.629081|    0.718507|    0.027811|  3.4004e+01|  3.4004e+01|  3.4004e+01|
|         401|  3.1007e-01|   -3.628460|    0.717840|    0.027360|  1.7002e+01|  1.7002e+01|  1.7002e+01|
|         402|  3.0994e-01|   -3.624896|    0.717567|    0.027128|  1.8702e+01|  1.8702e+01|  1.8702e+01|
|         403|  3.0984e-01|   -3.628767|    0.717295|    0.026865|  2.0572e+01|  2.0572e+01|  2.0572e+01|
|         404|  3.0973e-01|   -3.629415|    0.717044|    0.026567|  2.2630e+01|  2.2630e+01|  2.2630e+01|
|         405|  3.0963e-01|   -3.626543|    0.716856|    0.026229|  2.4893e+01|  2.4893e+01|  2.4893e+01|
|         406|  3.0953e-01|   -3.623232|    0.716763|    0.025845|  2.7382e+01|  2.7382e+01|  2.7382e+01|
|         407|  3.0968e-01|   -3.620040|    0.716759|    0.025412|  3.0120e+01|  3.0120e+01|  3.0120e+01|
|         408|  3.1033e-01|   -3.616152|    0.716877|    0.024924|  3.3132e+01|  3.3132e+01|  3.3132e+01|
|         409|  3.1021e-01|   -3.612762|    0.717194|    0.024377|  1.6566e+01|  1.6566e+01|  1.6566e+01|
|         410|  3.1009e-01|   -3.608588|    0.717394|    0.024102|  1.8223e+01|  1.8223e+01|  1.8223e+01|
|         411|  3.0998e-01|   -3.608322|    0.717657|    0.023797|  2.0045e+01|  2.0045e+01|  2.0045e+01|
|         412|  3.0987e-01|   -3.606902|    0.718007|    0.023459|  2.2049e+01|  2.2049e+01|  2.2049e+01|
|         413|  3.0994e-01|   -3.604086|    0.718470|    0.023086|  2.4254e+01|  2.4254e+01|  2.4254e+01|
|         414|  3.1070e-01|   -3.600987|    0.719056|    0.022675|  2.6680e+01|  2.6680e+01|  2.6680e+01|
|         415|  3.1057e-01|   -3.598120|    0.719744|    0.022226|  2.9348e+01|  2.9348e+01|  2.9348e+01|
|         416|  3.1046e-01|   -3.595065|    0.720602|    0.021735|  3.2282e+01|  3.2282e+01|  3.2282e+01|
|         417|  3.1035e-01|   -3.592046|    0.721672|    0.021200|  1.6141e+01|  1.6141e+01|  1.6141e+01|
|         418|  3.1024e-01|   -3.589301|    0.722208|    0.020934|  1.7755e+01|  1.7755e+01|  1.7755e+01|
|         419|  3.1025e-01|   -3.588170|    0.722823|    0.020645|  1.9531e+01|  1.9531e+01|  1.9531e+01|
|         420|  3.1097e-01|   -3.586794|    0.723546|    0.020331|  2.1484e+01|  2.1484e+01|  2.1484e+01|
|         421|  3.1084e-01|   -3.584943|    0.724386|    0.019990|  2.3632e+01|  2.3632e+01|  2.3632e+01|
|         422|  3.1073e-01|   -3.583115|    0.725326|    0.019623|  2.5996e+01|  2.5996e+01|  2.5996e+01|
|         423|  3.1062e-01|   -3.581398|    0.726399|    0.019231|  2.8595e+01|  2.8595e+01|  2.8595e+01|
|         424|  3.1051e-01|   -3.579887|    0.727648|    0.018810|  3.1455e+01|  3.1455e+01|  3.1455e+01|
|         425|  3.1063e-01|   -3.578973|    0.729073|    0.018364|  3.1455e+01|  3.1455e+01|  3.1455e+01|
|         426|  3.1125e-01|   -3.578216|    0.730550|    0.017936|  3.1455e+01|  3.1455e+01|  3.1455e+01|
|         427|  3.1113e-01|   -3.578236|    0.732081|    0.017528|  1.5727e+01|  1.5727e+01|  1.5727e+01|
|         428|  3.1101e-01|   -3.578974|    0.732857|    0.017328|  1.7300e+01|  1.7300e+01|  1.7300e+01|
|         429|  3.1090e-01|   -3.581057|    0.733722|    0.017114|  1.9030e+01|  1.9030e+01|  1.9030e+01|
|         430|  3.1079e-01|   -3.582263|    0.734697|    0.016888|  2.0933e+01|  2.0933e+01|  2.0933e+01|
|         431|  3.1122e-01|   -3.582787|    0.735783|    0.016649|  2.3026e+01|  2.3026e+01|  2.3026e+01|
|         432|  3.1135e-01|   -3.583490|    0.736989|    0.016399|  2.5329e+01|  2.5329e+01|  2.5329e+01|
|         433|  3.1125e-01|   -3.584435|    0.738345|    0.016138|  2.7862e+01|  2.7862e+01|  2.7862e+01|
|         434|  3.1114e-01|   -3.586025|    0.739862|    0.015869|  3.0648e+01|  3.0648e+01|  3.0648e+01|
|         435|  3.1104e-01|   -3.588175|    0.741555|    0.015593|  3.0648e+01|  3.0648e+01|  3.0648e+01|
|         436|  3.1140e-01|   -3.591226|    0.743274|    0.015338|  3.0648e+01|  3.0648e+01|  3.0648e+01|
|         437|  3.1155e-01|   -3.594780|    0.745012|    0.015105|  3.0648e+01|  3.0648e+01|  3.0648e+01|
|         438|  3.1145e-01|   -3.599018|    0.746770|    0.014893|  3.0648e+01|  3.0648e+01|  3.0648e+01|
|         439|  3.1134e-01|   -3.603132|    0.748543|    0.014704|  3.0648e+01|  3.0648e+01|  3.0648e+01|
|         440|  3.1124e-01|   -3.607382|    0.750335|    0.014536|  3.0648e+01|  3.0648e+01|  3.0648e+01|
|         441|  3.1114e-01|   -3.612632|    0.752142|    0.014389|  3.0648e+01|  3.0648e+01|  3.0648e+01|
|         442|  3.1104e-01|   -3.617461|    0.753951|    0.014265|  3.0648e+01|  3.0648e+01|  3.0648e+01|
|         443|  3.1140e-01|   -3.621563|    0.755762|    0.014161|  3.0648e+01|  3.0648e+01|  3.0648e+01|
|         444|  3.1143e-01|   -3.625238|    0.757576|    0.014079|  3.0648e+01|  3.0648e+01|  3.0648e+01|
|         445|  3.1133e-01|   -3.629416|    0.759378|    0.014017|  3.0648e+01|  3.0648e+01|  3.0648e+01|
|         446|  3.1123e-01|   -3.633466|    0.761163|    0.013975|  3.0648e+01|  3.0648e+01|  3.0648e+01|
|         447|  3.1113e-01|   -3.640852|    0.762925|    0.013953|  3.0648e+01|  3.0648e+01|  3.0648e+01|
|         448|  3.1103e-01|   -3.649423|    0.764657|    0.013951|  3.0648e+01|  3.0648e+01|  3.0648e+01|
|         449|  3.1161e-01|   -3.656088|    0.766348|    0.013966|  3.0648e+01|  3.0648e+01|  3.0648e+01|
|         450|  3.1149e-01|   -3.668046|    0.767991|    0.013998|  3.0648e+01|  3.0648e+01|  3.0648e+01|
|         451|  3.1139e-01|   -3.676867|    0.769581|    0.014045|  3.0648e+01|  3.0648e+01|  3.0648e+01|
|         452|  3.1129e-01|   -3.672874|    0.771116|    0.014108|  3.0648e+01|  3.0648e+01|  3.0648e+01|
|         453|  3.1119e-01|   -3.668252|    0.772587|    0.014184|  3.0648e+01|  3.0648e+01|  3.0648e+01|
|         454|  3.1110e-01|   -3.668162|    0.773997|    0.014272|  3.0648e+01|  3.0648e+01|  3.0648e+01|
|         455|  3.1100e-01|   -3.667638|    0.775348|    0.014373|  3.3713e+01|  3.3713e+01|  3.3713e+01|
|         456|  3.1090e-01|   -3.672816|    0.776755|    0.014497|  1.6856e+01|  1.6856e+01|  1.6856e+01|
|         457|  3.1116e-01|   -3.677439|    0.777439|    0.014561|  1.8542e+01|  1.8542e+01|  1.8542e+01|
|         458|  3.1144e-01|   -3.691784|    0.778164|    0.014636|  2.0396e+01|  2.0396e+01|  2.0396e+01|
|         459|  3.1134e-01|   -3.698411|    0.778931|    0.014723|  2.2436e+01|  2.2436e+01|  2.2436e+01|
|         460|  3.1124e-01|   -3.696292|    0.779739|    0.014824|  2.4680e+01|  2.4680e+01|  2.4680e+01|
|         461|  3.1115e-01|   -3.693189|    0.780584|    0.014939|  2.7148e+01|  2.7148e+01|  2.7148e+01|
|         462|  3.1105e-01|   -3.689011|    0.781453|    0.015070|  2.9862e+01|  2.9862e+01|  2.9862e+01|
|         463|  3.1125e-01|   -3.683984|    0.782338|    0.015221|  3.2849e+01|  3.2849e+01|  3.2849e+01|
|         464|  3.1172e-01|   -3.679957|    0.783215|    0.015391|  1.6424e+01|  1.6424e+01|  1.6424e+01|
|         465|  3.1161e-01|   -3.677758|    0.783630|    0.015475|  1.8067e+01|  1.8067e+01|  1.8067e+01|
|         466|  3.1151e-01|   -3.685982|    0.784056|    0.015572|  1.9873e+01|  1.9873e+01|  1.9873e+01|
|         467|  3.1141e-01|   -3.688530|    0.784493|    0.015680|  2.1861e+01|  2.1861e+01|  2.1861e+01|
|         468|  3.1132e-01|   -3.684244|    0.784930|    0.015800|  2.4047e+01|  2.4047e+01|  2.4047e+01|
|         469|  3.1142e-01|   -3.679056|    0.785360|    0.015933|  2.6451e+01|  2.6451e+01|  2.6451e+01|
|         470|  3.1206e-01|   -3.679049|    0.785768|    0.016077|  2.9097e+01|  2.9097e+01|  2.9097e+01|
|         471|  3.1195e-01|   -3.674230|    0.786134|    0.016234|  3.2006e+01|  3.2006e+01|  3.2006e+01|
|         472|  3.1184e-01|   -3.668436|    0.786431|    0.016404|  3.2006e+01|  3.2006e+01|  3.2006e+01|
|         473|  3.1174e-01|   -3.662648|    0.786617|    0.016571|  3.2006e+01|  3.2006e+01|  3.2006e+01|
|         474|  3.1164e-01|   -3.658998|    0.786693|    0.016732|  3.2006e+01|  3.2006e+01|  3.2006e+01|
|         475|  3.1188e-01|   -3.653782|    0.786662|    0.016889|  3.2006e+01|  3.2006e+01|  3.2006e+01|
|         476|  3.1233e-01|   -3.649354|    0.786520|    0.017039|  3.2006e+01|  3.2006e+01|  3.2006e+01|
|         477|  3.1222e-01|   -3.644913|    0.786271|    0.017182|  3.2006e+01|  3.2006e+01|  3.2006e+01|
|         478|  3.1212e-01|   -3.641490|    0.785921|    0.017317|  3.2006e+01|  3.2006e+01|  3.2006e+01|
|         479|  3.1202e-01|   -3.638244|    0.785480|    0.017446|  3.2006e+01|  3.2006e+01|  3.2006e+01|
|         480|  3.1193e-01|   -3.636244|    0.784940|    0.017566|  1.6003e+01|  1.6003e+01|  1.6003e+01|
|         481|  3.1220e-01|   -3.633512|    0.784649|    0.017624|  1.7603e+01|  1.7603e+01|  1.7603e+01|
|         482|  3.1264e-01|   -3.634028|    0.784304|    0.017686|  1.9364e+01|  1.9364e+01|  1.9364e+01|
|         483|  3.1253e-01|   -3.633396|    0.783889|    0.017752|  2.1300e+01|  2.1300e+01|  2.1300e+01|
|         484|  3.1243e-01|   -3.631851|    0.783393|    0.017821|  2.3430e+01|  2.3430e+01|  2.3430e+01|
|         485|  3.1233e-01|   -3.630738|    0.782799|    0.017893|  2.5773e+01|  2.5773e+01|  2.5773e+01|
|         486|  3.1223e-01|   -3.629666|    0.782098|    0.017966|  2.8351e+01|  2.8351e+01|  2.8351e+01|
|         487|  3.1252e-01|   -3.628587|    0.781281|    0.018039|  3.1186e+01|  3.1186e+01|  3.1186e+01|
|         488|  3.1291e-01|   -3.628219|    0.780346|    0.018111|  3.1186e+01|  3.1186e+01|  3.1186e+01|
|         489|  3.1280e-01|   -3.627832|    0.779371|    0.018175|  1.5593e+01|  1.5593e+01|  1.5593e+01|
|         490|  3.1270e-01|   -3.628802|    0.778871|    0.018207|  1.7152e+01|  1.7152e+01|  1.7152e+01|
|         491|  3.1260e-01|   -3.631920|    0.778309|    0.018239|  1.8867e+01|  1.8867e+01|  1.8867e+01|
|         492|  3.1294e-01|   -3.633567|    0.777676|    0.018271|  2.0754e+01|  2.0754e+01|  2.0754e+01|
|         493|  3.1295e-01|   -3.633699|    0.776972|    0.018302|  2.2829e+01|  2.2829e+01|  2.2829e+01|
|         494|  3.1285e-01|   -3.633972|    0.776191|    0.018331|  2.5112e+01|  2.5112e+01|  2.5112e+01|
|         495|  3.1276e-01|   -3.634792|    0.775321|    0.018355|  2.7624e+01|  2.7624e+01|  2.7624e+01|
|         496|  3.1267e-01|   -3.636205|    0.774360|    0.018371|  3.0386e+01|  3.0386e+01|  3.0386e+01|
|         497|  3.1322e-01|   -3.638245|    0.773319|    0.018379|  3.0386e+01|  3.0386e+01|  3.0386e+01|
|         498|  3.1310e-01|   -3.640239|    0.772292|    0.018376|  3.0386e+01|  3.0386e+01|  3.0386e+01|
|         499|  3.1301e-01|   -3.642840|    0.771251|    0.018365|  3.0386e+01|  3.0386e+01|  3.0386e+01|
|         500|  3.1292e-01|   -3.647033|    0.770219|    0.018345|  3.0386e+01|  3.0386e+01|  3.0386e+01|
+-----------------------------------------------------------------------+
|        File Writing Summary       |              Filename             |
+-----------------------------------------------------------------------+
|SU2 binary restart                 |restart_flow.dat                   |

Writing the forces breakdown file (forces_breakdown.dat).
|Paraview                           |flow.vtu                           |

Writing the forces breakdown file (forces_breakdown.dat).
|Paraview surface                   |surface_flow.vtu                   |

Writing the forces breakdown file (forces_breakdown.dat).
+-----------------------------------------------------------------------+
+-------------------------------------------------------------------------------------------------------+
|  Inner_Iter|   Time(sec)|    rms[Rho]|          CL|          CD|     Min CFL|     Max CFL|     Avg CFL|
+-------------------------------------------------------------------------------------------------------+
|         501|  3.1320e-01|   -3.651447|    0.769237|    0.018316|  3.0386e+01|  3.0386e+01|  3.0386e+01|
|         502|  3.1377e-01|   -3.654999|    0.768269|    0.018279|  3.0386e+01|  3.0386e+01|  3.0386e+01|
|         503|  3.1366e-01|   -3.658937|    0.767294|    0.018237|  3.0386e+01|  3.0386e+01|  3.0386e+01|
|         504|  3.1356e-01|   -3.663212|    0.766347|    0.018191|  3.0386e+01|  3.0386e+01|  3.0386e+01|
|         505|  3.1346e-01|   -3.665011|    0.765447|    0.018140|  3.3425e+01|  3.3425e+01|  3.3425e+01|
|         506|  3.1371e-01|   -3.667546|    0.764486|    0.018083|  1.6712e+01|  1.6712e+01|  1.6712e+01|
|         507|  3.1388e-01|   -3.673367|    0.764016|    0.018056|  1.8383e+01|  1.8383e+01|  1.8383e+01|
|         508|  3.1378e-01|   -3.684933|    0.763532|    0.018026|  2.0222e+01|  2.0222e+01|  2.0222e+01|
|         509|  3.1369e-01|   -3.690326|    0.763027|    0.017993|  2.2244e+01|  2.2244e+01|  2.2244e+01|
|         510|  3.1359e-01|   -3.692635|    0.762484|    0.017958|  2.4468e+01|  2.4468e+01|  2.4468e+01|
|         511|  3.1350e-01|   -3.696516|    0.761901|    0.017921|  2.6915e+01|  2.6915e+01|  2.6915e+01|
|         512|  3.1353e-01|   -3.706167|    0.761308|    0.017884|  2.9607e+01|  2.9607e+01|  2.9607e+01|
|         513|  3.1393e-01|   -3.710159|    0.760688|    0.017847|  3.2567e+01|  3.2567e+01|  3.2567e+01|
|         514|  3.1383e-01|   -3.712755|    0.760040|    0.017815|  3.2567e+01|  3.2567e+01|  3.2567e+01|
|         515|  3.1373e-01|   -3.714240|    0.759442|    0.017793|  3.2567e+01|  3.2567e+01|  3.2567e+01|
|         516|  3.1364e-01|   -3.719640|    0.758901|    0.017780|  3.2567e+01|  3.2567e+01|  3.2567e+01|
|         517|  3.1355e-01|   -3.721781|    0.758396|    0.017781|  3.2567e+01|  3.2567e+01|  3.2567e+01|
|         518|  3.1346e-01|   -3.725568|    0.757926|    0.017793|  3.2567e+01|  3.2567e+01|  3.2567e+01|
|         519|  3.1337e-01|   -3.726844|    0.757493|    0.017816|  3.2567e+01|  3.2567e+01|  3.2567e+01|
|         520|  3.1376e-01|   -3.728581|    0.757126|    0.017853|  3.2567e+01|  3.2567e+01|  3.2567e+01|
|         521|  3.1375e-01|   -3.728032|    0.756794|    0.017900|  3.2567e+01|  3.2567e+01|  3.2567e+01|
|         522|  3.1366e-01|   -3.727973|    0.756502|    0.017960|  3.2567e+01|  3.2567e+01|  3.2567e+01|
|         523|  3.1357e-01|   -3.727458|    0.756269|    0.018033|  3.2567e+01|  3.2567e+01|  3.2567e+01|
|         524|  3.1349e-01|   -3.725069|    0.756083|    0.018119|  3.2567e+01|  3.2567e+01|  3.2567e+01|
|         525|  3.1340e-01|   -3.721934|    0.755943|    0.018216|  3.2567e+01|  3.2567e+01|  3.2567e+01|
|         526|  3.1373e-01|   -3.720134|    0.755850|    0.018324|  3.2567e+01|  3.2567e+01|  3.2567e+01|
|         527|  3.1363e-01|   -3.717892|    0.755786|    0.018442|  3.2567e+01|  3.2567e+01|  3.2567e+01|
|         528|  3.1353e-01|   -3.717626|    0.755760|    0.018569|  3.2567e+01|  3.2567e+01|  3.2567e+01|
|         529|  3.1345e-01|   -3.714449|    0.755768|    0.018704|  1.6284e+01|  1.6284e+01|  1.6284e+01|
|         530|  3.1336e-01|   -3.713988|    0.755772|    0.018773|  1.7912e+01|  1.7912e+01|  1.7912e+01|
|         531|  3.1327e-01|   -3.718563|    0.755786|    0.018851|  1.9703e+01|  1.9703e+01|  1.9703e+01|
|         532|  3.1374e-01|   -3.718862|    0.755818|    0.018940|  2.1674e+01|  2.1674e+01|  2.1674e+01|
|         533|  3.1364e-01|   -3.716504|    0.755862|    0.019041|  2.3841e+01|  2.3841e+01|  2.3841e+01|
|         534|  3.1354e-01|   -3.714224|    0.755911|    0.019154|  2.6225e+01|  2.6225e+01|  2.6225e+01|
|         535|  3.1345e-01|   -3.711938|    0.755957|    0.019280|  2.8848e+01|  2.8848e+01|  2.8848e+01|
|         536|  3.1336e-01|   -3.709485|    0.755999|    0.019419|  3.1732e+01|  3.1732e+01|  3.1732e+01|
|         537|  3.1327e-01|   -3.707370|    0.756052|    0.019575|  1.5866e+01|  1.5866e+01|  1.5866e+01|
|         538|  3.1318e-01|   -3.703895|    0.756079|    0.019653|  1.7453e+01|  1.7453e+01|  1.7453e+01|
|         539|  3.1309e-01|   -3.705524|    0.756108|    0.019739|  1.9198e+01|  1.9198e+01|  1.9198e+01|
|         540|  3.1350e-01|   -3.708584|    0.756143|    0.019836|  2.1118e+01|  2.1118e+01|  2.1118e+01|
|         541|  3.1340e-01|   -3.708160|    0.756193|    0.019943|  2.3230e+01|  2.3230e+01|  2.3230e+01|
|         542|  3.1332e-01|   -3.708095|    0.756254|    0.020061|  2.5553e+01|  2.5553e+01|  2.5553e+01|
|         543|  3.1323e-01|   -3.708413|    0.756325|    0.020190|  2.8108e+01|  2.8108e+01|  2.8108e+01|
|         544|  3.1315e-01|   -3.709659|    0.756405|    0.020329|  3.0919e+01|  3.0919e+01|  3.0919e+01|
|         545|  3.1307e-01|   -3.710931|    0.756502|    0.020480|  1.5459e+01|  1.5459e+01|  1.5459e+01|
|         546|  3.1298e-01|   -3.713957|    0.756557|    0.020554|  1.7005e+01|  1.7005e+01|  1.7005e+01|
|         547|  3.1368e-01|   -3.719042|    0.756621|    0.020634|  1.8706e+01|  1.8706e+01|  1.8706e+01|
|         548|  3.1358e-01|   -3.722728|    0.756701|    0.020722|  2.0576e+01|  2.0576e+01|  2.0576e+01|
|         549|  3.1349e-01|   -3.725027|    0.756807|    0.020818|  2.2634e+01|  2.2634e+01|  2.2634e+01|
|         550|  3.1340e-01|   -3.727187|    0.756937|    0.020919|  2.4897e+01|  2.4897e+01|  2.4897e+01|
|         551|  3.1331e-01|   -3.730842|    0.757082|    0.021025|  2.7387e+01|  2.7387e+01|  2.7387e+01|
|         552|  3.1323e-01|   -3.735289|    0.757253|    0.021135|  3.0126e+01|  3.0126e+01|  3.0126e+01|
|         553|  3.1390e-01|   -3.740181|    0.757447|    0.021245|  3.0126e+01|  3.0126e+01|  3.0126e+01|
|         554|  3.1380e-01|   -3.746166|    0.757644|    0.021344|  3.0126e+01|  3.0126e+01|  3.0126e+01|
|         555|  3.1371e-01|   -3.753669|    0.757838|    0.021429|  3.0126e+01|  3.0126e+01|  3.0126e+01|
|         556|  3.1362e-01|   -3.761272|    0.758024|    0.021498|  3.0126e+01|  3.0126e+01|  3.0126e+01|
|         557|  3.1353e-01|   -3.769267|    0.758202|    0.021551|  3.0126e+01|  3.0126e+01|  3.0126e+01|
|         558|  3.1344e-01|   -3.779280|    0.758366|    0.021586|  3.0126e+01|  3.0126e+01|  3.0126e+01|
|         559|  3.1416e-01|   -3.789427|    0.758521|    0.021602|  3.0126e+01|  3.0126e+01|  3.0126e+01|
|         560|  3.1414e-01|   -3.799487|    0.758662|    0.021598|  3.0126e+01|  3.0126e+01|  3.0126e+01|
|         561|  3.1405e-01|   -3.808266|    0.758798|    0.021576|  3.0126e+01|  3.0126e+01|  3.0126e+01|
|         562|  3.1396e-01|   -3.812673|    0.758924|    0.021533|  3.0126e+01|  3.0126e+01|  3.0126e+01|
|         563|  3.1387e-01|   -3.810945|    0.759050|    0.021471|  3.3139e+01|  3.3139e+01|  3.3139e+01|
|         564|  3.1404e-01|   -3.809790|    0.759189|    0.021380|  1.6569e+01|  1.6569e+01|  1.6569e+01|
|         565|  3.1440e-01|   -3.795884|    0.759265|    0.021329|  1.8226e+01|  1.8226e+01|  1.8226e+01|
|         566|  3.1431e-01|   -3.817172|    0.759351|    0.021267|  2.0049e+01|  2.0049e+01|  2.0049e+01|
|         567|  3.1422e-01|   -3.828355|    0.759446|    0.021190|  2.2054e+01|  2.2054e+01|  2.2054e+01|
|         568|  3.1414e-01|   -3.829437|    0.759550|    0.021096|  2.4259e+01|  2.4259e+01|  2.4259e+01|
|         569|  3.1405e-01|   -3.823305|    0.759666|    0.020980|  2.6685e+01|  2.6685e+01|  2.6685e+01|
|         570|  3.1416e-01|   -3.819341|    0.759795|    0.020838|  2.9353e+01|  2.9353e+01|  2.9353e+01|
|         571|  3.1461e-01|   -3.820007|    0.759939|    0.020663|  3.2289e+01|  3.2289e+01|  3.2289e+01|
|         572|  3.1451e-01|   -3.822798|    0.760097|    0.020450|  3.2289e+01|  3.2289e+01|  3.2289e+01|
|         573|  3.1442e-01|   -3.819948|    0.760250|    0.020216|  3.5518e+01|  3.5518e+01|  3.5518e+01|
|         574|  3.1433e-01|   -3.819409|    0.760407|    0.019934|  1.7759e+01|  1.7759e+01|  1.7759e+01|
|         575|  3.1424e-01|   -3.816229|    0.760484|    0.019786|  1.9535e+01|  1.9535e+01|  1.9535e+01|
|         576|  3.1469e-01|   -3.844679|    0.760565|    0.019617|  2.1488e+01|  2.1488e+01|  2.1488e+01|
|         577|  3.1460e-01|   -3.860533|    0.760653|    0.019422|  2.3637e+01|  2.3637e+01|  2.3637e+01|
|         578|  3.1452e-01|   -3.867294|    0.760742|    0.019197|  2.6001e+01|  2.6001e+01|  2.6001e+01|
|         579|  3.1447e-01|   -3.855309|    0.760838|    0.018938|  2.8601e+01|  2.8601e+01|  2.8601e+01|
|         580|  3.1441e-01|   -3.860354|    0.760945|    0.018641|  3.1461e+01|  3.1461e+01|  3.1461e+01|
|         581|  3.1485e-01|   -3.859764|    0.761072|    0.018301|  3.4607e+01|  3.4607e+01|  3.4607e+01|
|         582|  3.1475e-01|   -3.875506|    0.761226|    0.017913|  1.7303e+01|  1.7303e+01|  1.7303e+01|
|         583|  3.1467e-01|   -3.865296|    0.761310|    0.017717|  1.9034e+01|  1.9034e+01|  1.9034e+01|
|         584|  3.1458e-01|   -3.881952|    0.761407|    0.017498|  2.0937e+01|  2.0937e+01|  2.0937e+01|
|         585|  3.1449e-01|   -3.887834|    0.761516|    0.017253|  2.3031e+01|  2.3031e+01|  2.3031e+01|
|         586|  3.1441e-01|   -3.883204|    0.761641|    0.016979|  2.5334e+01|  2.5334e+01|  2.5334e+01|
|         587|  3.1486e-01|   -3.884288|    0.761777|    0.016674|  2.7867e+01|  2.7867e+01|  2.7867e+01|
|         588|  3.1477e-01|   -3.887126|    0.761930|    0.016333|  3.0654e+01|  3.0654e+01|  3.0654e+01|
|         589|  3.1468e-01|   -3.885796|    0.762107|    0.015955|  3.3720e+01|  3.3720e+01|  3.3720e+01|
|         590|  3.1460e-01|   -3.875487|    0.762317|    0.015538|  1.6860e+01|  1.6860e+01|  1.6860e+01|
|         591|  3.1452e-01|   -3.874473|    0.762427|    0.015330|  1.8546e+01|  1.8546e+01|  1.8546e+01|
|         592|  3.1444e-01|   -3.882476|    0.762553|    0.015101|  2.0400e+01|  2.0400e+01|  2.0400e+01|
|         593|  3.1436e-01|   -3.882978|    0.762697|    0.014851|  2.2440e+01|  2.2440e+01|  2.2440e+01|
|         594|  3.1473e-01|   -3.880538|    0.762861|    0.014577|  2.4684e+01|  2.4684e+01|  2.4684e+01|
|         595|  3.1463e-01|   -3.881812|    0.763046|    0.014279|  2.7153e+01|  2.7153e+01|  2.7153e+01|
|         596|  3.1455e-01|   -3.879073|    0.763257|    0.013955|  2.9868e+01|  2.9868e+01|  2.9868e+01|
|         597|  3.1447e-01|   -3.878806|    0.763504|    0.013605|  3.2855e+01|  3.2855e+01|  3.2855e+01|
|         598|  3.1439e-01|   -3.879151|    0.763788|    0.013232|  1.6427e+01|  1.6427e+01|  1.6427e+01|
|         599|  3.1431e-01|   -3.878275|    0.763928|    0.013049|  1.8070e+01|  1.8070e+01|  1.8070e+01|
|         600|  3.1424e-01|   -3.882009|    0.764088|    0.012851|  1.9877e+01|  1.9877e+01|  1.9877e+01|
|         601|  3.1443e-01|   -3.883242|    0.764271|    0.012639|  2.1865e+01|  2.1865e+01|  2.1865e+01|
|         602|  3.1457e-01|   -3.882967|    0.764479|    0.012413|  2.4051e+01|  2.4051e+01|  2.4051e+01|
|         603|  3.1449e-01|   -3.883274|    0.764718|    0.012174|  2.6457e+01|  2.6457e+01|  2.6457e+01|
|         604|  3.1441e-01|   -3.883509|    0.764992|    0.011923|  2.9102e+01|  2.9102e+01|  2.9102e+01|
|         605|  3.1433e-01|   -3.885007|    0.765300|    0.011665|  3.2013e+01|  3.2013e+01|  3.2013e+01|
|         606|  3.1426e-01|   -3.887322|    0.765639|    0.011404|  1.6006e+01|  1.6006e+01|  1.6006e+01|
|         607|  3.1418e-01|   -3.889047|    0.765814|    0.011278|  1.7607e+01|  1.7607e+01|  1.7607e+01|
|         608|  3.1454e-01|   -3.894184|    0.766008|    0.011147|  1.9368e+01|  1.9368e+01|  1.9368e+01|
|         609|  3.1445e-01|   -3.898658|    0.766218|    0.011013|  2.1304e+01|  2.1304e+01|  2.1304e+01|
|         610|  3.1437e-01|   -3.900281|    0.766441|    0.010877|  2.3435e+01|  2.3435e+01|  2.3435e+01|
|         611|  3.1430e-01|   -3.902697|    0.766684|    0.010742|  2.5778e+01|  2.5778e+01|  2.5778e+01|
|         612|  3.1422e-01|   -3.904854|    0.766954|    0.010611|  2.8356e+01|  2.8356e+01|  2.8356e+01|
|         613|  3.1414e-01|   -3.908170|    0.767250|    0.010490|  3.1192e+01|  3.1192e+01|  3.1192e+01|
|         614|  3.1440e-01|   -3.911052|    0.767574|    0.010386|  3.1192e+01|  3.1192e+01|  3.1192e+01|
|         615|  3.1445e-01|   -3.914006|    0.767893|    0.010311|  3.1192e+01|  3.1192e+01|  3.1192e+01|
|         616|  3.1437e-01|   -3.918685|    0.768205|    0.010266|  3.1192e+01|  3.1192e+01|  3.1192e+01|
|         617|  3.1430e-01|   -3.926439|    0.768506|    0.010251|  3.1192e+01|  3.1192e+01|  3.1192e+01|
|         618|  3.1422e-01|   -3.933389|    0.768796|    0.010267|  3.1192e+01|  3.1192e+01|  3.1192e+01|
|         619|  3.1415e-01|   -3.939644|    0.769069|    0.010314|  3.1192e+01|  3.1192e+01|  3.1192e+01|
|         620|  3.1407e-01|   -3.945961|    0.769328|    0.010392|  3.1192e+01|  3.1192e+01|  3.1192e+01|
|         621|  3.1446e-01|   -3.952664|    0.769564|    0.010501|  3.1192e+01|  3.1192e+01|  3.1192e+01|
|         622|  3.1436e-01|   -3.959217|    0.769784|    0.010640|  3.1192e+01|  3.1192e+01|  3.1192e+01|
[...]
|        2653|  3.2167e-01|   -6.162723|    0.702358|    0.013579|  2.6297e+01|  2.6297e+01|  2.6297e+01|
|        2654|  3.2165e-01|   -6.162156|    0.702358|    0.013579|  2.8927e+01|  2.8927e+01|  2.8927e+01|
|        2655|  3.2164e-01|   -6.151328|    0.702358|    0.013580|  3.1819e+01|  3.1819e+01|  3.1819e+01|
|        2656|  3.2174e-01|   -6.135995|    0.702358|    0.013580|  3.5001e+01|  3.5001e+01|  3.5001e+01|
|        2657|  3.2172e-01|   -6.119069|    0.702358|    0.013581|  3.5001e+01|  3.5001e+01|  3.5001e+01|
|        2658|  3.2170e-01|   -6.101410|    0.702358|    0.013582|  3.5001e+01|  3.5001e+01|  3.5001e+01|
|        2659|  3.2168e-01|   -6.094128|    0.702358|    0.013583|  3.5001e+01|  3.5001e+01|  3.5001e+01|
|        2660|  3.2166e-01|   -6.093362|    0.702358|    0.013584|  3.5001e+01|  3.5001e+01|  3.5001e+01|
|        2661|  3.2163e-01|   -6.094560|    0.702357|    0.013585|  3.5001e+01|  3.5001e+01|  3.5001e+01|
|        2662|  3.2175e-01|   -6.093252|    0.702357|    0.013586|  3.5001e+01|  3.5001e+01|  3.5001e+01|
|        2663|  3.2174e-01|   -6.091293|    0.702356|    0.013587|  1.7501e+01|  1.7501e+01|  1.7501e+01|
|        2664|  3.2172e-01|   -6.088687|    0.702356|    0.013588|  8.7503e+00|  8.7503e+00|  8.7503e+00|
|        2665|  3.2169e-01|   -6.137197|    0.702356|    0.013588|  4.3752e+00|  4.3752e+00|  4.3752e+00|
|        2666|  3.2166e-01|   -6.190202|    0.702356|    0.013588|  4.8127e+00|  4.8127e+00|  4.8127e+00|
|        2667|  3.2162e-01|   -6.221992|    0.702355|    0.013588|  5.2939e+00|  5.2939e+00|  5.2939e+00|
|        2668|  3.2165e-01|   -6.244429|    0.702355|    0.013588|  5.8233e+00|  5.8233e+00|  5.8233e+00|
|        2669|  3.2170e-01|   -6.259646|    0.702355|    0.013589|  6.4057e+00|  6.4057e+00|  6.4057e+00|
|        2670|  3.2167e-01|   -6.271362|    0.702355|    0.013589|  7.0462e+00|  7.0462e+00|  7.0462e+00|
|        2671|  3.2164e-01|   -6.279131|    0.702355|    0.013589|  7.7509e+00|  7.7509e+00|  7.7509e+00|
|        2672|  3.2161e-01|   -6.283548|    0.702355|    0.013589|  8.5259e+00|  8.5259e+00|  8.5259e+00|
|        2673|  3.2159e-01|   -6.285155|    0.702354|    0.013590|  9.3785e+00|  9.3785e+00|  9.3785e+00|
|        2674|  3.2157e-01|   -6.285489|    0.702354|    0.013590|  1.0316e+01|  1.0316e+01|  1.0316e+01|
|        2675|  3.2169e-01|   -6.284909|    0.702354|    0.013590|  1.1348e+01|  1.1348e+01|  1.1348e+01|
|        2676|  3.2167e-01|   -6.283730|    0.702354|    0.013591|  1.2483e+01|  1.2483e+01|  1.2483e+01|
|        2677|  3.2165e-01|   -6.281299|    0.702353|    0.013591|  1.3731e+01|  1.3731e+01|  1.3731e+01|
|        2678|  3.2163e-01|   -6.281796|    0.702353|    0.013591|  1.5104e+01|  1.5104e+01|  1.5104e+01|
|        2679|  3.2161e-01|   -6.277573|    0.702352|    0.013592|  1.6615e+01|  1.6615e+01|  1.6615e+01|
|        2680|  3.2159e-01|   -6.272596|    0.702352|    0.013592|  1.8276e+01|  1.8276e+01|  1.8276e+01|
|        2681|  3.2169e-01|   -6.264937|    0.702351|    0.013593|  2.0104e+01|  2.0104e+01|  2.0104e+01|
|        2682|  3.2167e-01|   -6.255822|    0.702351|    0.013593|  2.2114e+01|  2.2114e+01|  2.2114e+01|
|        2683|  3.2165e-01|   -6.244389|    0.702350|    0.013594|  2.4326e+01|  2.4326e+01|  2.4326e+01|
|        2684|  3.2163e-01|   -6.229675|    0.702349|    0.013595|  2.6758e+01|  2.6758e+01|  2.6758e+01|
|        2685|  3.2161e-01|   -6.214237|    0.702347|    0.013595|  2.9434e+01|  2.9434e+01|  2.9434e+01|
|        2686|  3.2168e-01|   -6.196298|    0.702346|    0.013596|  3.2377e+01|  3.2377e+01|  3.2377e+01|
|        2687|  3.2166e-01|   -6.176167|    0.702344|    0.013597|  3.5615e+01|  3.5615e+01|  3.5615e+01|
|        2688|  3.2164e-01|   -6.154693|    0.702342|    0.013598|  3.9176e+01|  3.9176e+01|  3.9176e+01|
|        2689|  3.2162e-01|   -6.133165|    0.702340|    0.013599|  1.9588e+01|  1.9588e+01|  1.9588e+01|
|        2690|  3.2160e-01|   -6.109457|    0.702338|    0.013599|  2.1547e+01|  2.1547e+01|  2.1547e+01|
|        2691|  3.2169e-01|   -6.149633|    0.702337|    0.013600|  2.3702e+01|  2.3702e+01|  2.3702e+01|
|        2692|  3.2167e-01|   -6.188411|    0.702335|    0.013600|  2.6072e+01|  2.6072e+01|  2.6072e+01|
|        2693|  3.2165e-01|   -6.183891|    0.702333|    0.013601|  2.8679e+01|  2.8679e+01|  2.8679e+01|
|        2694|  3.2163e-01|   -6.180417|    0.702331|    0.013601|  3.1547e+01|  3.1547e+01|  3.1547e+01|
|        2695|  3.2161e-01|   -6.166441|    0.702329|    0.013602|  3.4702e+01|  3.4702e+01|  3.4702e+01|
|        2696|  3.2159e-01|   -6.147898|    0.702326|    0.013603|  3.8172e+01|  3.8172e+01|  3.8172e+01|
|        2697|  3.2169e-01|   -6.131974|    0.702323|    0.013603|  3.8172e+01|  3.8172e+01|  3.8172e+01|
|        2698|  3.2167e-01|   -6.111134|    0.702319|    0.013603|  4.1989e+01|  4.1989e+01|  4.1989e+01|
|        2699|  3.2165e-01|   -6.101546|    0.702315|    0.013604|  2.0995e+01|  2.0995e+01|  2.0995e+01|
|        2700|  3.2163e-01|   -6.091036|    0.702313|    0.013604|  2.3094e+01|  2.3094e+01|  2.3094e+01|
|        2701|  3.2161e-01|   -6.134799|    0.702311|    0.013604|  2.5403e+01|  2.5403e+01|  2.5403e+01|
|        2702|  3.2160e-01|   -6.178981|    0.702309|    0.013604|  2.7944e+01|  2.7944e+01|  2.7944e+01|
|        2703|  3.2169e-01|   -6.169993|    0.702306|    0.013604|  3.0738e+01|  3.0738e+01|  3.0738e+01|
|        2704|  3.2167e-01|   -6.167583|    0.702303|    0.013604|  1.5369e+01|  1.5369e+01|  1.5369e+01|
|        2705|  3.2165e-01|   -6.150975|    0.702301|    0.013604|  7.6845e+00|  7.6845e+00|  7.6845e+00|
|        2706|  3.2162e-01|   -6.188539|    0.702301|    0.013604|  8.4530e+00|  8.4530e+00|  8.4530e+00|
|        2707|  3.2160e-01|   -6.237228|    0.702300|    0.013604|  9.2983e+00|  9.2983e+00|  9.2983e+00|
|        2708|  3.2166e-01|   -6.261619|    0.702299|    0.013604|  1.0228e+01|  1.0228e+01|  1.0228e+01|
|        2709|  3.2167e-01|   -6.275289|    0.702298|    0.013604|  1.1251e+01|  1.1251e+01|  1.1251e+01|
|        2710|  3.2164e-01|   -6.280575|    0.702297|    0.013604|  1.2376e+01|  1.2376e+01|  1.2376e+01|
|        2711|  3.2162e-01|   -6.283312|    0.702295|    0.013604|  1.3614e+01|  1.3614e+01|  1.3614e+01|
|        2712|  3.2160e-01|   -6.281730|    0.702294|    0.013604|  1.4975e+01|  1.4975e+01|  1.4975e+01|
|        2713|  3.2166e-01|   -6.278463|    0.702292|    0.013604|  1.6472e+01|  1.6472e+01|  1.6472e+01|
|        2714|  3.2168e-01|   -6.272585|    0.702291|    0.013603|  1.8120e+01|  1.8120e+01|  1.8120e+01|
|        2715|  3.2166e-01|   -6.265742|    0.702289|    0.013603|  1.9932e+01|  1.9932e+01|  1.9932e+01|
|        2716|  3.2164e-01|   -6.256879|    0.702287|    0.013603|  2.1925e+01|  2.1925e+01|  2.1925e+01|
|        2717|  3.2162e-01|   -6.246208|    0.702284|    0.013603|  2.4117e+01|  2.4117e+01|  2.4117e+01|
|        2718|  3.2161e-01|   -6.234301|    0.702282|    0.013602|  2.6529e+01|  2.6529e+01|  2.6529e+01|
|        2719|  3.2170e-01|   -6.220964|    0.702279|    0.013602|  2.9182e+01|  2.9182e+01|  2.9182e+01|
|        2720|  3.2168e-01|   -6.206513|    0.702276|    0.013602|  3.2100e+01|  3.2100e+01|  3.2100e+01|
|        2721|  3.2166e-01|   -6.188549|    0.702273|    0.013601|  3.5310e+01|  3.5310e+01|  3.5310e+01|
|        2722|  3.2163e-01|   -6.171017|    0.702269|    0.013600|  3.5310e+01|  3.5310e+01|  3.5310e+01|
|        2723|  3.2161e-01|   -6.151395|    0.702265|    0.013600|  3.5310e+01|  3.5310e+01|  3.5310e+01|
|        2724|  3.2167e-01|   -6.141628|    0.702262|    0.013599|  3.5310e+01|  3.5310e+01|  3.5310e+01|
|        2725|  3.2171e-01|   -6.138475|    0.702258|    0.013598|  3.5310e+01|  3.5310e+01|  3.5310e+01|
|        2726|  3.2169e-01|   -6.135115|    0.702255|    0.013597|  3.5310e+01|  3.5310e+01|  3.5310e+01|
|        2727|  3.2167e-01|   -6.137977|    0.702252|    0.013596|  3.5310e+01|  3.5310e+01|  3.5310e+01|
|        2728|  3.2165e-01|   -6.143124|    0.702248|    0.013595|  3.5310e+01|  3.5310e+01|  3.5310e+01|
|        2729|  3.2167e-01|   -6.139544|    0.702245|    0.013594|  3.8841e+01|  3.8841e+01|  3.8841e+01|
|        2730|  3.2172e-01|   -6.142004|    0.702242|    0.013593|  1.9421e+01|  1.9421e+01|  1.9421e+01|
|        2731|  3.2170e-01|   -6.131933|    0.702240|    0.013593|  9.7103e+00|  9.7103e+00|  9.7103e+00|
|        2732|  3.2168e-01|   -6.179506|    0.702240|    0.013593|  1.0681e+01|  1.0681e+01|  1.0681e+01|
|        2733|  3.2166e-01|   -6.247397|    0.702239|    0.013592|  1.1749e+01|  1.1749e+01|  1.1749e+01|
|        2734|  3.2173e-01|   -6.279007|    0.702238|    0.013592|  1.2924e+01|  1.2924e+01|  1.2924e+01|
|        2735|  3.2173e-01|   -6.293636|    0.702237|    0.013592|  1.4217e+01|  1.4217e+01|  1.4217e+01|
|        2736|  3.2172e-01|   -6.299053|    0.702236|    0.013591|  1.5639e+01|  1.5639e+01|  1.5639e+01|
|        2737|  3.2170e-01|   -6.299628|    0.702234|    0.013591|  1.7202e+01|  1.7202e+01|  1.7202e+01|
|        2738|  3.2168e-01|   -6.296561|    0.702233|    0.013590|  1.8923e+01|  1.8923e+01|  1.8923e+01|
|        2739|  3.2166e-01|   -6.290621|    0.702232|    0.013590|  2.0815e+01|  2.0815e+01|  2.0815e+01|
|        2740|  3.2175e-01|   -6.281806|    0.702230|    0.013589|  2.2896e+01|  2.2896e+01|  2.2896e+01|
|        2741|  3.2173e-01|   -6.272813|    0.702229|    0.013588|  2.5186e+01|  2.5186e+01|  2.5186e+01|
|        2742|  3.2172e-01|   -6.263851|    0.702227|    0.013588|  2.7705e+01|  2.7705e+01|  2.7705e+01|
|        2743|  3.2170e-01|   -6.252187|    0.702225|    0.013587|  3.0475e+01|  3.0475e+01|  3.0475e+01|
|        2744|  3.2168e-01|   -6.237340|    0.702224|    0.013586|  3.3523e+01|  3.3523e+01|  3.3523e+01|
|        2745|  3.2171e-01|   -6.220143|    0.702222|    0.013585|  3.6875e+01|  3.6875e+01|  3.6875e+01|
|        2746|  3.2177e-01|   -6.199933|    0.702220|    0.013585|  3.6875e+01|  3.6875e+01|  3.6875e+01|
|        2747|  3.2175e-01|   -6.181557|    0.702218|    0.013584|  4.0562e+01|  4.0562e+01|  4.0562e+01|
|        2748|  3.2173e-01|   -6.170679|    0.702217|    0.013583|  2.0281e+01|  2.0281e+01|  2.0281e+01|
|        2749|  3.2172e-01|   -6.153923|    0.702216|    0.013582|  2.2309e+01|  2.2309e+01|  2.2309e+01|
|        2750|  3.2171e-01|   -6.196562|    0.702215|    0.013582|  2.4540e+01|  2.4540e+01|  2.4540e+01|
|        2751|  3.2178e-01|   -6.245079|    0.702214|    0.013581|  2.6994e+01|  2.6994e+01|  2.6994e+01|
|        2752|  3.2175e-01|   -6.238010|    0.702213|    0.013581|  2.9694e+01|  2.9694e+01|  2.9694e+01|
|        2753|  3.2173e-01|   -6.240188|    0.702213|    0.013580|  3.2663e+01|  3.2663e+01|  3.2663e+01|
|        2754|  3.2171e-01|   -6.226155|    0.702212|    0.013580|  3.5929e+01|  3.5929e+01|  3.5929e+01|
|        2755|  3.2174e-01|   -6.211736|    0.702211|    0.013579|  3.9522e+01|  3.9522e+01|  3.9522e+01|
|        2756|  3.2180e-01|   -6.190520|    0.702210|    0.013579|  3.9522e+01|  3.9522e+01|  3.9522e+01|
|        2757|  3.2178e-01|   -6.168513|    0.702210|    0.013579|  3.9522e+01|  3.9522e+01|  3.9522e+01|
|        2758|  3.2176e-01|   -6.154847|    0.702209|    0.013578|  3.9522e+01|  3.9522e+01|  3.9522e+01|
|        2759|  3.2174e-01|   -6.146807|    0.702209|    0.013578|  3.9522e+01|  3.9522e+01|  3.9522e+01|
|        2760|  3.2172e-01|   -6.133425|    0.702209|    0.013578|  3.9522e+01|  3.9522e+01|  3.9522e+01|
|        2761|  3.2176e-01|   -6.128359|    0.702209|    0.013578|  3.9522e+01|  3.9522e+01|  3.9522e+01|
|        2762|  3.2180e-01|   -6.122337|    0.702208|    0.013578|  3.9522e+01|  3.9522e+01|  3.9522e+01|
|        2763|  3.2178e-01|   -6.122797|    0.702208|    0.013578|  3.9522e+01|  3.9522e+01|  3.9522e+01|
|        2764|  3.2176e-01|   -6.121480|    0.702208|    0.013578|  1.9761e+01|  1.9761e+01|  1.9761e+01|
|        2765|  3.2174e-01|   -6.120422|    0.702208|    0.013579|  2.1737e+01|  2.1737e+01|  2.1737e+01|
|        2766|  3.2172e-01|   -6.162534|    0.702208|    0.013579|  2.3911e+01|  2.3911e+01|  2.3911e+01|
|        2767|  3.2182e-01|   -6.204159|    0.702208|    0.013579|  2.6302e+01|  2.6302e+01|  2.6302e+01|
|        2768|  3.2179e-01|   -6.200681|    0.702208|    0.013579|  2.8932e+01|  2.8932e+01|  2.8932e+01|
|        2769|  3.2177e-01|   -6.206530|    0.702208|    0.013580|  3.1826e+01|  3.1826e+01|  3.1826e+01|
|        2770|  3.2175e-01|   -6.201286|    0.702208|    0.013580|  1.5913e+01|  1.5913e+01|  1.5913e+01|
|        2771|  3.2173e-01|   -6.195419|    0.702208|    0.013580|  7.9564e+00|  7.9564e+00|  7.9564e+00|
|        2772|  3.2179e-01|   -6.233385|    0.702208|    0.013580|  3.9782e+00|  3.9782e+00|  3.9782e+00|
|        2773|  3.2177e-01|   -6.282546|    0.702208|    0.013580|  1.9891e+00|  1.9891e+00|  1.9891e+00|
|        2774|  3.2172e-01|   -6.309567|    0.702208|    0.013580|  1.0000e+00|  1.0000e+00|  1.0000e+00|
|        2775|  3.2168e-01|   -6.324433|    0.702208|    0.013580|  1.0000e+00|  1.0000e+00|  1.0000e+00|
|        2776|  3.2163e-01|   -6.331984|    0.702208|    0.013580|  1.0000e+00|  1.0000e+00|  1.0000e+00|
|        2777|  3.2158e-01|   -6.338716|    0.702208|    0.013580|  1.1000e+00|  1.1000e+00|  1.1000e+00|
|        2778|  3.2154e-01|   -6.344766|    0.702208|    0.013580|  1.2100e+00|  1.2100e+00|  1.2100e+00|
|        2779|  3.2161e-01|   -6.350610|    0.702208|    0.013581|  1.3310e+00|  1.3310e+00|  1.3310e+00|
|        2780|  3.2156e-01|   -6.356229|    0.702208|    0.013581|  1.4641e+00|  1.4641e+00|  1.4641e+00|
|        2781|  3.2151e-01|   -6.361624|    0.702208|    0.013581|  1.6105e+00|  1.6105e+00|  1.6105e+00|
|        2782|  3.2147e-01|   -6.366790|    0.702208|    0.013581|  1.7716e+00|  1.7716e+00|  1.7716e+00|
|        2783|  3.2143e-01|   -6.371695|    0.702208|    0.013581|  1.9487e+00|  1.9487e+00|  1.9487e+00|
|        2784|  3.2139e-01|   -6.376267|    0.702208|    0.013581|  2.1436e+00|  2.1436e+00|  2.1436e+00|
|        2785|  3.2134e-01|   -6.380430|    0.702208|    0.013581|  2.3579e+00|  2.3579e+00|  2.3579e+00|
|        2786|  3.2130e-01|   -6.384097|    0.702208|    0.013581|  2.5937e+00|  2.5937e+00|  2.5937e+00|
|        2787|  3.2134e-01|   -6.387205|    0.702208|    0.013581|  2.8531e+00|  2.8531e+00|  2.8531e+00|
|        2788|  3.2134e-01|   -6.389689|    0.702208|    0.013581|  3.1384e+00|  3.1384e+00|  3.1384e+00|
|        2789|  3.2130e-01|   -6.391507|    0.702208|    0.013581|  3.4523e+00|  3.4523e+00|  3.4523e+00|
|        2790|  3.2126e-01|   -6.392643|    0.702208|    0.013581|  3.7975e+00|  3.7975e+00|  3.7975e+00|
|        2791|  3.2123e-01|   -6.393097|    0.702208|    0.013581|  4.1772e+00|  4.1772e+00|  4.1772e+00|
|        2792|  3.2119e-01|   -6.392883|    0.702208|    0.013581|  4.5950e+00|  4.5950e+00|  4.5950e+00|
|        2793|  3.2116e-01|   -6.392038|    0.702208|    0.013581|  5.0545e+00|  5.0545e+00|  5.0545e+00|
|        2794|  3.2113e-01|   -6.390735|    0.702208|    0.013581|  5.5599e+00|  5.5599e+00|  5.5599e+00|
|        2795|  3.2121e-01|   -6.388434|    0.702208|    0.013581|  6.1159e+00|  6.1159e+00|  6.1159e+00|
|        2796|  3.2118e-01|   -6.385814|    0.702208|    0.013581|  6.7275e+00|  6.7275e+00|  6.7275e+00|
|        2797|  3.2115e-01|   -6.382835|    0.702208|    0.013582|  7.4002e+00|  7.4002e+00|  7.4002e+00|
|        2798|  3.2113e-01|   -6.378710|    0.702208|    0.013582|  8.1403e+00|  8.1403e+00|  8.1403e+00|
|        2799|  3.2111e-01|   -6.373413|    0.702208|    0.013582|  8.9543e+00|  8.9543e+00|  8.9543e+00|
|        2800|  3.2121e-01|   -6.366105|    0.702208|    0.013582|  9.8497e+00|  9.8497e+00|  9.8497e+00|
|        2801|  3.2119e-01|   -6.355557|    0.702208|    0.013582|  1.0835e+01|  1.0835e+01|  1.0835e+01|
|        2802|  3.2117e-01|   -6.340902|    0.702208|    0.013582|  1.1918e+01|  1.1918e+01|  1.1918e+01|
|        2803|  3.2115e-01|   -6.317199|    0.702208|    0.013583|  1.3110e+01|  1.3110e+01|  1.3110e+01|
|        2804|  3.2115e-01|   -6.284092|    0.702208|    0.013583|  1.4421e+01|  1.4421e+01|  1.4421e+01|
|        2805|  3.2122e-01|   -6.272314|    0.702208|    0.013583|  1.5863e+01|  1.5863e+01|  1.5863e+01|
|        2806|  3.2120e-01|   -6.231460|    0.702208|    0.013583|  1.7449e+01|  1.7449e+01|  1.7449e+01|
|        2807|  3.2118e-01|   -6.126957|    0.702208|    0.013584|  1.9194e+01|  1.9194e+01|  1.9194e+01|
|        2808|  3.2116e-01|   -6.239750|    0.702208|    0.013584|  2.1114e+01|  2.1114e+01|  2.1114e+01|
|        2809|  3.2114e-01|   -6.187053|    0.702208|    0.013585|  2.3225e+01|  2.3225e+01|  2.3225e+01|
|        2810|  3.2112e-01|   -6.235749|    0.702207|    0.013585|  2.5548e+01|  2.5548e+01|  2.5548e+01|
|        2811|  3.2110e-01|   -6.220069|    0.702207|    0.013586|  2.8102e+01|  2.8102e+01|  2.8102e+01|
|        2812|  3.2118e-01|   -6.236440|    0.702207|    0.013587|  3.0913e+01|  3.0913e+01|  3.0913e+01|
|        2813|  3.2116e-01|   -6.223029|    0.702206|    0.013587|  3.4004e+01|  3.4004e+01|  3.4004e+01|
|        2814|  3.2114e-01|   -6.212390|    0.702205|    0.013588|  3.7404e+01|  3.7404e+01|  3.7404e+01|
|        2815|  3.2112e-01|   -6.192619|    0.702204|    0.013589|  1.8702e+01|  1.8702e+01|  1.8702e+01|
|        2816|  3.2110e-01|   -6.182481|    0.702204|    0.013589|  2.0572e+01|  2.0572e+01|  2.0572e+01|
|        2817|  3.2112e-01|   -6.236037|    0.702203|    0.013590|  2.2630e+01|  2.2630e+01|  2.2630e+01|
|        2818|  3.2118e-01|   -6.279605|    0.702202|    0.013590|  2.4893e+01|  2.4893e+01|  2.4893e+01|
|        2819|  3.2116e-01|   -6.273542|    0.702201|    0.013591|  2.7382e+01|  2.7382e+01|  2.7382e+01|
|        2820|  3.2114e-01|   -6.268862|    0.702200|    0.013592|  3.0120e+01|  3.0120e+01|  3.0120e+01|
|        2821|  3.2112e-01|   -6.262204|    0.702199|    0.013592|  3.3132e+01|  3.3132e+01|  3.3132e+01|
|        2822|  3.2110e-01|   -6.244775|    0.702198|    0.013593|  3.6445e+01|  3.6445e+01|  3.6445e+01|
|        2823|  3.2108e-01|   -6.225937|    0.702196|    0.013594|  3.6445e+01|  3.6445e+01|  3.6445e+01|

----------------------------- Solver Exit -------------------------------
All convergence criteria satisfied.
+-----------------------------------------------------------------------+
|      Convergence Field     |     Value    |   Criterion  |  Converged |
+-----------------------------------------------------------------------+
|                  Cauchy[CL]|   9.92843e-07|       < 1e-06|         Yes|
+-----------------------------------------------------------------------+
-------------------------------------------------------------------------
+-----------------------------------------------------------------------+
|        File Writing Summary       |              Filename             |
+-----------------------------------------------------------------------+
|SU2 binary restart                 |restart_flow.dat                   |

Writing the forces breakdown file (forces_breakdown.dat).
|Paraview                           |flow.vtu                           |

Writing the forces breakdown file (forces_breakdown.dat).
|Paraview surface                   |surface_flow.vtu                   |

Writing the forces breakdown file (forces_breakdown.dat).
+-----------------------------------------------------------------------+

--------------------------- Finalizing Solver ---------------------------
Deleted CNumerics container.
Deleted CIntegration container.
Deleted CSolver container.
Deleted CIteration container.
Deleted CInterface container.
Deleted CGeometry container.
Deleted CFreeFormDefBox class.
Deleted CSurfaceMovement class.
Deleted CVolumetricMovement class.
Deleted CConfig container.
Deleted nInst container.
Deleted COutput class.
-------------------------------------------------------------------------

------------------------- Exit Success (SU2_CFD) ------------------------

