
-------------------------------------------------------------------------
|    ___ _   _ ___                                                      |
|   / __| | | |_  )   Release 8.0.0 "Harrier"                           |
|   \__ \ |_| |/ /                                                      |
|   |___/\___//___|   Suite (Computational Fluid Dynamics Code)         |
|                                                                       |
-------------------------------------------------------------------------
| SU2 Project Website: https://su2code.github.io                        |
|                                                                       |
| The SU2 Project is maintained by the SU2 Foundation                   |
| (http://su2foundation.org)                                            |
-------------------------------------------------------------------------
| Copyright 2012-2023, SU2 Contributors                                 |
|                                                                       |
| SU2 is free software; you can redistribute it and/or                  |
| modify it under the terms of the GNU Lesser General Public            |
| License as published by the Free Software Foundation; either          |
| version 2.1 of the License, or (at your option) any later version.    |
|                                                                       |
| SU2 is distributed in the hope that it will be useful,                |
| but WITHOUT ANY WARRANTY; without even the implied warranty of        |
| MERCHANTABILITY or FITNESS FOR A PARTICULAR PURPOSE. See the GNU      |
| Lesser General Public License for more details.                       |
|                                                                       |
| You should have received a copy of the GNU Lesser General Public      |
| License along with SU2. If not, see <http://www.gnu.org/licenses/>.   |
-------------------------------------------------------------------------

Parsing config file for zone 0

----------------- Physical Case Definition ( Zone 0 ) -------------------
Compressible RANS equations.
Turbulence model: Spalart-Allmaras-noft2
Hybrid RANS/LES: No Hybrid RANS/LES
Mach number: 0.734.
Angle of attack (AoA): 2.31 deg, and angle of sideslip (AoS): 0 deg.
Reynolds number: 6.5e+06. Reference length 1.
No restart solution, use the values at infinity (freestream).
Dimensional simulation.
The reference area is 1 m^2.
The semi-span will be computed using the max y(3D) value.
The reference length is 1 m.
Reference origin for moment evaluation is (0.25, 0, 0).
Surface(s) where the force coefficients are evaluated: AIRFOIL.

Surface(s) plotted in the output file: AIRFOIL.
Input mesh file name: Mesh.su2

--------------- Space Numerical Integration ( Zone 0 ) ------------------
Roe (with entropy fix = 0.001) solver for the flow inviscid terms.
Standard Roe without low-dissipation function.
Second order integration in space, with slope limiter.
Venkatakrishnan slope-limiting method, with constant: 0.03.
The reference element size is: 1. 
Scalar upwind solver for the turbulence model.
First order integration in space.
Average of gradients with correction (viscous flow terms).
Average of gradients with correction (viscous turbulence terms).
Gradient for upwind reconstruction: inverse-distance weighted Least-Squares.
Gradient for viscous and source terms: inverse-distance weighted Least-Squares.

--------------- Time Numerical Integration  ( Zone 0 ) ------------------
Local time stepping (steady state simulation).
Euler implicit method for the flow equations.
FGMRES is used for solving the linear system.
Using a ILU(0) preconditioning.
Convergence criteria of the linear solver: 0.01.
Max number of linear iterations: 5.
CFL adaptation. Factor down: 0.5, factor up: 1.1,
                lower limit: 50, upper limit: 10000,
                acceptable linear residual: 0.01.
Courant-Friedrichs-Lewy number:       20
Euler implicit time integration for the turbulence model.

------------------ Convergence Criteria  ( Zone 0 ) ---------------------
Maximum number of solver subiterations: 5000.
Begin convergence monitoring at iteration 10.
Residual minimum value: 1e-14.
Cauchy series min. value: 1e-06.
Number of Cauchy elements: 100.
Begin windowed time average at iteration 0.

-------------------- Output Information ( Zone 0 ) ----------------------
File writing frequency: 
+------------------------------------+
|                     File| Frequency|
+------------------------------------+
|                  RESTART|      1000|
|                 PARAVIEW|      1000|
|         SURFACE_PARAVIEW|      1000|
+------------------------------------+
Writing the convergence history file every 1 inner iterations.
Writing the screen convergence history every 1 inner iterations.
The tabular file format is CSV (.csv).
Convergence history file name: historyThird.
Forces breakdown file name: forces_breakdown.dat.
Surface file name: surface_flow.
Volume file name: flow.
Restart file name: restart_flow.dat.

------------- Config File Boundary Information ( Zone 0 ) ---------------
+-----------------------------------------------------------------------+
|                        Marker Type|                        Marker Name|
+-----------------------------------------------------------------------+
|                          Far-field|                           FARFIELD|
+-----------------------------------------------------------------------+
|                     Heat flux wall|                            AIRFOIL|
+-----------------------------------------------------------------------+

-------------------- Output Preprocessing ( Zone 0 ) --------------------

WARNING: SURFACE_PRESSURE_DROP can only be computed for at least 2 surfaces (outlet, inlet, ...)

Screen output fields: INNER_ITER, WALL_TIME, RMS_DENSITY, LIFT, DRAG, LINSOL_ITER, LINSOL_RESIDUAL, MIN_CFL, MAX_CFL, AVG_CFL
  Info: Ignoring the following history output groups:
  RESIDUALS, CFL
History output group(s): INNER_ITER, LIFT, DRAG
Convergence field(s): LIFT
Warning: No (valid) fields chosen for time convergence monitoring. Time convergence monitoring inactive.
  Info: Ignoring the following volume output fields/groups:
  RESIDUALS
Volume output fields: SOLUTION, PRIMITIVE, GRADIENTS, HESSIANS, EIGENVALUES, WALL_DISTANCE, COORDINATES

------------------- Geometry Preprocessing ( Zone 0 ) -------------------
Two dimensional problem.
104904 grid points before partitioning.
172186 volume elements before partitioning.
2 surface markers.
948 boundary elements in index 0 (Marker = AIRFOIL).
40 boundary elements in index 1 (Marker = FARFIELD).
Executing the partitioning functions.
Building the graph adjacency structure.
Calling ParMETIS... graph partitioning complete (1526 edge cuts).
Distributing ParMETIS coloring.
Rebalancing vertices.
Rebalancing volume element connectivity.
Rebalancing markers and surface elements.
106708 vertices including ghost points. 
173713 interior elements including halo cells. 
136812 triangles.
36901 quadrilaterals.
Establishing MPI communication patterns.
Setting point connectivity.
Renumbering points (Reverse Cuthill McKee Ordering).
Recomputing point connectivity.
Setting element connectivity.
Checking the numerical grid orientation.
All volume elements are correctly orientend.
All surface elements are correctly orientend.
Identifying edges and vertices.
Setting the control volume structure.
Area of the computational grid: 31287.1.
Searching for the closest normal neighbors to the surfaces.
Storing a mapping from global to local point index.
Compute the surface curvature.
Max K: 14233.3. Mean K: 41.8903. Standard deviation K: 622.026.
Checking for periodicity.
Computing mesh quality statistics for the dual control volumes.
+--------------------------------------------------------------+
|           Mesh Quality Metric|        Minimum|        Maximum|
+--------------------------------------------------------------+
|    Orthogonality Angle (deg.)|        53.2603|             90|
|     CV Face Area Aspect Ratio|        1.00405|        4296.37|
|           CV Sub-Volume Ratio|              1|        9.52766|
+--------------------------------------------------------------+
Finding max control volume width.
Communicating number of neighbors.
Wetted area = 2.02062 m.
Area projection in the x-plane = 0.12328 m, y-plane = 0.993661 m.
Max. coordinate in the x-direction = 0.993668 m, y-direction = 0.0643488 m.
Min. coordinate in the x-direction = 0 m, y-direction = -0.0577859 m.
Computing wall distances.

-------------------- Solver Preprocessing ( Zone 0 ) --------------------
Viscous flow: Computing pressure using the ideal gas law
based on the free-stream temperature and a density computed
from the Reynolds number.
Force coefficients computed using free-stream values.

-- Models:
+------------------------------------------------------------------------------+
|          Viscosity Model|        Conductivity Model|              Fluid Model|
+------------------------------------------------------------------------------+
|               SUTHERLAND|          CONSTANT_PRANDTL|             STANDARD_AIR|
+------------------------------------------------------------------------------+
-- Fluid properties:
+------------------------------------------------------------------------------+
|                  Name|    Dim. value|    Ref. value|      Unit|Non-dim. value|
+------------------------------------------------------------------------------+
|        Ref. Viscosity|     1.716e-05|             1|   N.s/m^2|     1.716e-05|
|      Sutherland Temp.|        273.15|             1|         K|        273.15|
|     Sutherland Const.|         110.4|             1|         K|         110.4|
+------------------------------------------------------------------------------+
|        Prandtl (Lam.)|             -|             -|         -|          0.71|
|       Prandtl (Turb.)|             -|             -|         -|           0.9|
+------------------------------------------------------------------------------+
|          Gas Constant|       287.058|             1|  N.m/kg.K|       287.058|
|      Spec. Heat Ratio|             -|             -|         -|           1.4|
+------------------------------------------------------------------------------+
-- Initial and free-stream conditions:
+------------------------------------------------------------------------------+
|                  Name|    Dim. value|    Ref. value|      Unit|Non-dim. value|
+------------------------------------------------------------------------------+
|       Static Pressure|         38515|             1|        Pa|         38515|
|               Density|      0.465631|             1|    kg/m^3|      0.465631|
|           Temperature|        288.15|             1|         K|        288.15|
|          Total Energy|        237984|             1|   m^2/s^2|        237984|
|            Velocity-X|       249.575|             1|       m/s|       249.575|
|            Velocity-Y|       10.0676|             1|       m/s|       10.0676|
|    Velocity Magnitude|       249.778|             1|       m/s|       249.778|
+------------------------------------------------------------------------------+
|             Viscosity|    1.7893e-05|             1|   N.s/m^2|    1.7893e-05|
|          Conductivity|             -|             1|   W/m^2.K|             -|
|     Turb. Kin. Energy|       233.959|             1|   m^2/s^2|       233.959|
|     Spec. Dissipation|        608834|             1|       1/s|        608834|
+------------------------------------------------------------------------------+
|           Mach Number|             -|             -|         -|         0.734|
|       Reynolds Number|             -|             -|         -|       6.5e+06|
+------------------------------------------------------------------------------+
Initialize Jacobian structure (Navier-Stokes). MG level: 0.
Initialize Jacobian structure (SA model).

------------------- Numerics Preprocessing ( Zone 0 ) -------------------

----------------- Integration Preprocessing ( Zone 0 ) ------------------

------------------- Iteration Preprocessing ( Zone 0 ) ------------------
Euler/Navier-Stokes/RANS fluid iteration.

------------------------------ Begin Solver -----------------------------

Simulation Run using the Single-zone Driver
WARNING: SU2 was not compiled for an AVX-capable architecture. Performance could be better,
         see https://su2code.github.io/docs_v7/Build-SU2-Linux-MacOS/#compiler-optimizations
+---------------------------------------------------------------------------------------------------------------------------------+
|  Inner_Iter|   Time(sec)|    rms[Rho]|          CL|          CD|Linear_Solve|   LinSolRes|     Min CFL|     Max CFL|     Avg CFL|
+---------------------------------------------------------------------------------------------------------------------------------+
|           0|  1.9211e-01|   -2.420682|    0.209990|    0.480968|           4|   -2.862617|  5.0000e+01|  5.0000e+01|  5.0000e+01|
|           1|  1.9318e-01|   -2.537057|    0.236564|    0.346309|           5|   -1.800778|  5.0000e+01|  5.0000e+01|  5.0000e+01|
|           2|  1.9212e-01|   -2.940513|    0.207926|    0.297874|           5|   -1.193647|  5.0000e+01|  5.0000e+01|  5.0000e+01|
|           3|  1.9260e-01|   -3.151035|    0.195451|    0.273453|           5|   -0.937529|  5.0000e+01|  5.0000e+01|  5.0000e+01|
|           4|  1.9270e-01|   -3.223423|    0.187982|    0.253159|           5|   -0.887589|  5.0000e+01|  5.0000e+01|  5.0000e+01|
|           5|  1.9293e-01|   -3.206512|    0.183158|    0.237534|           5|   -0.848405|  5.0000e+01|  5.0000e+01|  5.0000e+01|
|           6|  1.9299e-01|   -3.168043|    0.178398|    0.224387|           5|   -0.814371|  5.0000e+01|  5.0000e+01|  5.0000e+01|
|           7|  1.9307e-01|   -3.134169|    0.173284|    0.211817|           5|   -0.794567|  5.0000e+01|  5.0000e+01|  5.0000e+01|
|           8|  1.9329e-01|   -3.107411|    0.168225|    0.199790|           5|   -0.805290|  5.0000e+01|  5.0000e+01|  5.0000e+01|
|           9|  2.0669e-01|   -3.085308|    0.163347|    0.188742|           5|   -0.841529|  5.0000e+01|  5.0000e+01|  5.0000e+01|
|          10|  2.5996e-01|   -3.065705|    0.158676|    0.179323|           5|   -2.016743|  5.0000e+01|  5.0000e+01|  5.0000e+01|
|          11|  2.9219e-01|   -3.056344|    0.153835|    0.171169|           5|   -2.010248|  5.0000e+01|  5.0000e+01|  5.0000e+01|
|          12|  3.4093e-01|   -3.045158|    0.149304|    0.164013|           5|   -2.055988|  5.0000e+01|  5.0000e+01|  5.0000e+01|
|          13|  3.6253e-01|   -3.034883|    0.146052|    0.157230|           5|   -1.728408|  5.0000e+01|  5.0000e+01|  5.0000e+01|
|          14|  3.8133e-01|   -3.024303|    0.145137|    0.150161|           5|   -1.982013|  5.0000e+01|  5.0000e+01|  5.0000e+01|
|          15|  4.1241e-01|   -3.013270|    0.147473|    0.142330|           5|   -2.014001|  5.0000e+01|  5.0000e+01|  5.0000e+01|
|          16|  4.2603e-01|   -3.000666|    0.153713|    0.133556|           5|   -1.471335|  5.0000e+01|  5.0000e+01|  5.0000e+01|
|          17|  4.5408e-01|   -2.982379|    0.163719|    0.123980|           5|   -2.028115|  5.0000e+01|  5.0000e+01|  5.0000e+01|
|          18|  4.6401e-01|   -2.958727|    0.177185|    0.113935|           5|   -2.141953|  5.0000e+01|  5.0000e+01|  5.0000e+01|
|          19|  4.7532e-01|   -2.931291|    0.193074|    0.103913|           5|   -2.085575|  5.5000e+01|  5.5000e+01|  5.5000e+01|
|          20|  4.9490e-01|   -2.901591|    0.211727|    0.093522|           5|   -1.623188|  5.0000e+01|  5.0000e+01|  5.0000e+01|
|          21|  4.9696e-01|   -2.871144|    0.229144|    0.085112|           4|   -2.026694|  5.0000e+01|  5.0000e+01|  5.0000e+01|
|          22|  5.1173e-01|   -2.843463|    0.245948|    0.077988|           4|   -2.085438|  5.0000e+01|  5.0000e+01|  5.0000e+01|
|          23|  5.1655e-01|   -2.816164|    0.261562|    0.072303|           5|   -2.093830|  5.0000e+01|  5.0000e+01|  5.0000e+01|
|          24|  5.1753e-01|   -2.790405|    0.275887|    0.068081|           4|   -2.012786|  5.0000e+01|  5.0000e+01|  5.0000e+01|
|          25|  5.3188e-01|   -2.765761|    0.289147|    0.065184|           4|   -2.021401|  5.0000e+01|  5.0000e+01|  5.0000e+01|
|          26|  5.3571e-01|   -2.742965|    0.301669|    0.063373|           5|   -2.266535|  5.0000e+01|  5.0000e+01|  5.0000e+01|
|          27|  5.4982e-01|   -2.723183|    0.313895|    0.062370|           5|   -2.113205|  5.0000e+01|  5.0000e+01|  5.0000e+01|
|          28|  5.5277e-01|   -2.705429|    0.326173|    0.061854|           5|   -2.158638|  5.0000e+01|  5.0000e+01|  5.0000e+01|
|          29|  5.6631e-01|   -2.690876|    0.338860|    0.061537|           5|   -2.034230|  5.0000e+01|  5.0000e+01|  5.0000e+01|
|          30|  5.6843e-01|   -2.677978|    0.352115|    0.061185|           5|   -2.062651|  5.0000e+01|  5.0000e+01|  5.0000e+01|
|          31|  5.7074e-01|   -2.668498|    0.365886|    0.060628|           5|   -1.968053|  5.0000e+01|  5.0000e+01|  5.0000e+01|
|          32|  5.8173e-01|   -2.660285|    0.379906|    0.059752|           5|   -2.038922|  5.0000e+01|  5.0000e+01|  5.0000e+01|
|          33|  5.8352e-01|   -2.651741|    0.393885|    0.058523|           5|   -2.116175|  5.0000e+01|  5.0000e+01|  5.0000e+01|
|          34|  5.9321e-01|   -2.645597|    0.407445|    0.056954|           5|   -2.026316|  5.0000e+01|  5.0000e+01|  5.0000e+01|
|          35|  5.9438e-01|   -2.637876|    0.420306|    0.055100|           5|   -1.962691|  5.0000e+01|  5.0000e+01|  5.0000e+01|
|          36|  5.9896e-01|   -2.630767|    0.432165|    0.053033|           5|   -1.972892|  5.0000e+01|  5.0000e+01|  5.0000e+01|
|          37|  6.0479e-01|   -2.622420|    0.443084|    0.050857|           5|   -1.951303|  5.0000e+01|  5.0000e+01|  5.0000e+01|
|          38|  6.0735e-01|   -2.613685|    0.453012|    0.048643|           5|   -2.100385|  5.0000e+01|  5.0000e+01|  5.0000e+01|
|          39|  6.1394e-01|   -2.604653|    0.462336|    0.046493|           5|   -2.190946|  5.0000e+01|  5.0000e+01|  5.0000e+01|
|          40|  6.1433e-01|   -2.595572|    0.471427|    0.044488|           5|   -2.206367|  5.0000e+01|  5.0000e+01|  5.0000e+01|
|          41|  6.1261e-01|   -2.586458|    0.480265|    0.042627|           4|   -2.159568|  5.0000e+01|  5.0000e+01|  5.0000e+01|
|          42|  6.1633e-01|   -2.577300|    0.489530|    0.040971|           4|   -2.162762|  5.0000e+01|  5.0000e+01|  5.0000e+01|
|          43|  6.1692e-01|   -2.568070|    0.499345|    0.039502|           5|   -2.168874|  5.0000e+01|  5.0000e+01|  5.0000e+01|
|          44|  6.2381e-01|   -2.559609|    0.509707|    0.038200|           5|   -2.126210|  5.0000e+01|  5.0000e+01|  5.0000e+01|
|          45|  6.2391e-01|   -2.552237|    0.521050|    0.037083|           5|   -2.000137|  5.0000e+01|  5.0000e+01|  5.0000e+01|
|          46|  6.2435e-01|   -2.545069|    0.533005|    0.036086|           5|   -2.002340|  5.0000e+01|  5.0000e+01|  5.0000e+01|
|          47|  6.3060e-01|   -2.541872|    0.545390|    0.035145|           5|   -2.001320|  5.0000e+01|  5.0000e+01|  5.0000e+01|
|          48|  6.3084e-01|   -2.544818|    0.558094|    0.034285|           5|   -1.942055|  5.0000e+01|  5.0000e+01|  5.0000e+01|
|          49|  6.3109e-01|   -2.548204|    0.570871|    0.033420|           5|   -2.044334|  5.0000e+01|  5.0000e+01|  5.0000e+01|
|          50|  6.3673e-01|   -2.559627|    0.583724|    0.032608|           5|   -1.901871|  5.0000e+01|  5.0000e+01|  5.0000e+01|
|          51|  6.3662e-01|   -2.572703|    0.596541|    0.031876|           5|   -1.555309|  5.0000e+01|  5.0000e+01|  5.0000e+01|
|          52|  6.3630e-01|   -2.589507|    0.608922|    0.031162|           5|   -1.742977|  5.0000e+01|  5.0000e+01|  5.0000e+01|
|          53|  6.4207e-01|   -2.611337|    0.620977|    0.030533|           5|   -1.571683|  5.0000e+01|  5.0000e+01|  5.0000e+01|
|          54|  6.4177e-01|   -2.638770|    0.632274|    0.029908|           5|   -1.523814|  5.0000e+01|  5.0000e+01|  5.0000e+01|
|          55|  6.4179e-01|   -2.669384|    0.643160|    0.029368|           5|   -1.745591|  5.0000e+01|  5.0000e+01|  5.0000e+01|
|          56|  6.4722e-01|   -2.691222|    0.652383|    0.028715|           5|   -1.808815|  5.0000e+01|  5.0000e+01|  5.0000e+01|
|          57|  6.4695e-01|   -2.716185|    0.661060|    0.028134|           5|   -1.638986|  5.0000e+01|  5.0000e+01|  5.0000e+01|
|          58|  6.5141e-01|   -2.738094|    0.668988|    0.027569|           5|   -1.400262|  5.0000e+01|  5.0000e+01|  5.0000e+01|
|          59|  6.5085e-01|   -2.740854|    0.675978|    0.027026|           5|   -1.703043|  5.0000e+01|  5.0000e+01|  5.0000e+01|
|          60|  6.5376e-01|   -2.760061|    0.682687|    0.026595|           5|   -1.448888|  5.0000e+01|  5.0000e+01|  5.0000e+01|
|          61|  6.5481e-01|   -2.761607|    0.688321|    0.026149|           5|   -1.644219|  5.0000e+01|  5.0000e+01|  5.0000e+01|
|          62|  6.5446e-01|   -2.753093|    0.693604|    0.025826|           5|   -1.114852|  5.0000e+01|  5.0000e+01|  5.0000e+01|
|          63|  6.5412e-01|   -2.744130|    0.698312|    0.025518|           5|   -1.729789|  5.0000e+01|  5.0000e+01|  5.0000e+01|
|          64|  6.6018e-01|   -2.752021|    0.702470|    0.025229|           5|   -1.462056|  5.0000e+01|  5.0000e+01|  5.0000e+01|
|          65|  6.5981e-01|   -2.752251|    0.706188|    0.025018|           5|   -1.614852|  5.0000e+01|  5.0000e+01|  5.0000e+01|
|          66|  6.6408e-01|   -2.741777|    0.709617|    0.024851|           5|   -1.749772|  5.0000e+01|  5.0000e+01|  5.0000e+01|
|          67|  6.6380e-01|   -2.756623|    0.712842|    0.024803|           5|   -1.586177|  5.0000e+01|  5.0000e+01|  5.0000e+01|
|          68|  6.6350e-01|   -2.764631|    0.715576|    0.024766|           5|   -1.683764|  5.0000e+01|  5.0000e+01|  5.0000e+01|
|          69|  6.6687e-01|   -2.781166|    0.718061|    0.024839|           5|   -1.557077|  5.0000e+01|  5.0000e+01|  5.0000e+01|
|          70|  6.6655e-01|   -2.803913|    0.720339|    0.024992|           5|   -1.722775|  5.0000e+01|  5.0000e+01|  5.0000e+01|
|          71|  6.7025e-01|   -2.812981|    0.722011|    0.025219|           5|   -1.421635|  5.0000e+01|  5.0000e+01|  5.0000e+01|
|          72|  6.6987e-01|   -2.830998|    0.721867|    0.025266|           5|   -1.267614|  5.0000e+01|  5.0000e+01|  5.0000e+01|
|          73|  6.7225e-01|   -2.851772|    0.721035|    0.025345|           5|   -1.613558|  5.0000e+01|  5.0000e+01|  5.0000e+01|
|          74|  6.7316e-01|   -2.915941|    0.719995|    0.025528|           5|   -1.592339|  5.0000e+01|  5.0000e+01|  5.0000e+01|
|          75|  6.7439e-01|   -2.942091|    0.718706|    0.025798|           5|   -1.097647|  5.0000e+01|  5.0000e+01|  5.0000e+01|
|          76|  6.7667e-01|   -2.992002|    0.716710|    0.026070|           5|   -1.601267|  5.0000e+01|  5.0000e+01|  5.0000e+01|
|          77|  6.7735e-01|   -3.019819|    0.714561|    0.026407|           5|   -1.775317|  5.0000e+01|  5.0000e+01|  5.0000e+01|
|          78|  6.7899e-01|   -3.076687|    0.712377|    0.026827|           5|   -1.522471|  5.0000e+01|  5.0000e+01|  5.0000e+01|
|          79|  6.7856e-01|   -3.087258|    0.709873|    0.027265|           5|   -1.750061|  5.0000e+01|  5.0000e+01|  5.0000e+01|
|          80|  6.8181e-01|   -3.102187|    0.707074|    0.027710|           5|   -1.305130|  5.0000e+01|  5.0000e+01|  5.0000e+01|
|          81|  6.8135e-01|   -3.054357|    0.704245|    0.028196|           5|   -1.550561|  5.0000e+01|  5.0000e+01|  5.0000e+01|
|          82|  6.8502e-01|   -2.980736|    0.701861|    0.028770|           5|   -1.586857|  5.0000e+01|  5.0000e+01|  5.0000e+01|
|          83|  6.8443e-01|   -3.006920|    0.699739|    0.029393|           5|   -1.323484|  5.0000e+01|  5.0000e+01|  5.0000e+01|
|          84|  6.8734e-01|   -3.052081|    0.696971|    0.029833|           5|   -1.162483|  5.0000e+01|  5.0000e+01|  5.0000e+01|
|          85|  6.8682e-01|   -3.101597|    0.693878|    0.030240|           5|   -1.670181|  5.0000e+01|  5.0000e+01|  5.0000e+01|
|          86|  6.8974e-01|   -3.162367|    0.691261|    0.030662|           5|   -1.434247|  5.0000e+01|  5.0000e+01|  5.0000e+01|
|          87|  6.8912e-01|   -3.194344|    0.688611|    0.031014|           5|   -1.519618|  5.0000e+01|  5.0000e+01|  5.0000e+01|
|          88|  6.8847e-01|   -3.181861|    0.686466|    0.031369|           5|   -1.612551|  5.0000e+01|  5.0000e+01|  5.0000e+01|
|          89|  6.9122e-01|   -3.174901|    0.684219|    0.031624|           5|   -1.682192|  5.0000e+01|  5.0000e+01|  5.0000e+01|
|          90|  6.9055e-01|   -3.226335|    0.682547|    0.031876|           5|   -1.746921|  5.0000e+01|  5.0000e+01|  5.0000e+01|
|          91|  6.9352e-01|   -3.243649|    0.680322|    0.031959|           5|   -1.595526|  5.0000e+01|  5.0000e+01|  5.0000e+01|
|          92|  6.9295e-01|   -3.274872|    0.677892|    0.031920|           5|   -1.860902|  5.0000e+01|  5.0000e+01|  5.0000e+01|
|          93|  6.9491e-01|   -3.304399|    0.675564|    0.031808|           5|   -1.523122|  5.0000e+01|  5.0000e+01|  5.0000e+01|
|          94|  6.9437e-01|   -3.321990|    0.674639|    0.031810|           5|   -1.525806|  5.0000e+01|  5.0000e+01|  5.0000e+01|
|          95|  6.9698e-01|   -3.306557|    0.673430|    0.031680|           5|   -1.500096|  5.0000e+01|  5.0000e+01|  5.0000e+01|
|          96|  6.9623e-01|   -3.339327|    0.673327|    0.031613|           5|   -1.470009|  5.0000e+01|  5.0000e+01|  5.0000e+01|
|          97|  6.9773e-01|   -3.353480|    0.673551|    0.031498|           5|   -1.734672|  5.0000e+01|  5.0000e+01|  5.0000e+01|
|          98|  6.9834e-01|   -3.402843|    0.674224|    0.031358|           5|   -1.322442|  5.0000e+01|  5.0000e+01|  5.0000e+01|
|          99|  7.0074e-01|   -3.396524|    0.675411|    0.031195|           5|   -1.550420|  5.0000e+01|  5.0000e+01|  5.0000e+01|
|         100|  7.0009e-01|   -3.381545|    0.677166|    0.031017|           5|   -1.540779|  5.0000e+01|  5.0000e+01|  5.0000e+01|
|         101|  6.9940e-01|   -3.382266|    0.678857|    0.030736|           5|   -1.513181|  5.0000e+01|  5.0000e+01|  5.0000e+01|
|         102|  7.0142e-01|   -3.420644|    0.680651|    0.030388|           5|   -1.137518|  5.0000e+01|  5.0000e+01|  5.0000e+01|
|         103|  7.0073e-01|   -3.426282|    0.683511|    0.030093|           5|   -1.521413|  5.0000e+01|  5.0000e+01|  5.0000e+01|
|         104|  7.0017e-01|   -3.471924|    0.685886|    0.029647|           5|   -1.429606|  5.0000e+01|  5.0000e+01|  5.0000e+01|
|         105|  7.0232e-01|   -3.445610|    0.688881|    0.029190|           5|   -1.460234|  5.0000e+01|  5.0000e+01|  5.0000e+01|
|         106|  7.0176e-01|   -3.479354|    0.691450|    0.028614|           5|   -1.070287|  5.0000e+01|  5.0000e+01|  5.0000e+01|
|         107|  7.0112e-01|   -3.492587|    0.694287|    0.027994|           5|   -1.213203|  5.0000e+01|  5.0000e+01|  5.0000e+01|
|         108|  7.0311e-01|   -3.486721|    0.697105|    0.027284|           5|   -1.592647|  5.0000e+01|  5.0000e+01|  5.0000e+01|
|         109|  7.0256e-01|   -3.529894|    0.700318|    0.026565|           5|   -1.258333|  5.0000e+01|  5.0000e+01|  5.0000e+01|
|         110|  7.0448e-01|   -3.502441|    0.703239|    0.025750|           5|   -1.114146|  5.0000e+01|  5.0000e+01|  5.0000e+01|
|         111|  7.0383e-01|   -3.501897|    0.706418|    0.024917|           5|   -1.084407|  5.0000e+01|  5.0000e+01|  5.0000e+01|
|         112|  7.0320e-01|   -3.531039|    0.709330|    0.024064|           5|   -0.834660|  5.0000e+01|  5.0000e+01|  5.0000e+01|
|         113|  7.0494e-01|   -3.548341|    0.712723|    0.023137|           5|   -1.521398|  5.0000e+01|  5.0000e+01|  5.0000e+01|
|         114|  7.0441e-01|   -3.568379|    0.716244|    0.022187|           5|   -1.330768|  5.0000e+01|  5.0000e+01|  5.0000e+01|
|         115|  7.0389e-01|   -3.522367|    0.720013|    0.021233|           5|   -1.224619|  5.0000e+01|  5.0000e+01|  5.0000e+01|
|         116|  7.0579e-01|   -3.580269|    0.723756|    0.020279|           5|   -1.279294|  5.0000e+01|  5.0000e+01|  5.0000e+01|
|         117|  7.0525e-01|   -3.542400|    0.727611|    0.019297|           5|   -1.358235|  5.0000e+01|  5.0000e+01|  5.0000e+01|
|         118|  7.0474e-01|   -3.530839|    0.731604|    0.018331|           5|   -1.396341|  5.0000e+01|  5.0000e+01|  5.0000e+01|
|         119|  7.0636e-01|   -3.572215|    0.735283|    0.017321|           5|   -1.251234|  5.0000e+01|  5.0000e+01|  5.0000e+01|
|         120|  7.0578e-01|   -3.607783|    0.739514|    0.016413|           5|   -1.255412|  5.0000e+01|  5.0000e+01|  5.0000e+01|
|         121|  7.0745e-01|   -3.581514|    0.743367|    0.015508|           5|   -1.337663|  5.0000e+01|  5.0000e+01|  5.0000e+01|
|         122|  7.0679e-01|   -3.573351|    0.747464|    0.014608|           5|   -1.389190|  5.0000e+01|  5.0000e+01|  5.0000e+01|
|         123|  7.0619e-01|   -3.562117|    0.751401|    0.013774|           5|   -1.249672|  5.0000e+01|  5.0000e+01|  5.0000e+01|
|         124|  7.0750e-01|   -3.621546|    0.755476|    0.012989|           5|   -1.278646|  5.0000e+01|  5.0000e+01|  5.0000e+01|
|         125|  7.0681e-01|   -3.610637|    0.759527|    0.012290|           5|   -1.291188|  5.0000e+01|  5.0000e+01|  5.0000e+01|
|         126|  7.0624e-01|   -3.607739|    0.763569|    0.011667|           5|   -1.251148|  5.0000e+01|  5.0000e+01|  5.0000e+01|
|         127|  7.0754e-01|   -3.637379|    0.767446|    0.011151|           5|   -1.311409|  5.0000e+01|  5.0000e+01|  5.0000e+01|
|         128|  7.0695e-01|   -3.653647|    0.771255|    0.010723|           5|   -1.339520|  5.0000e+01|  5.0000e+01|  5.0000e+01|
|         129|  7.0640e-01|   -3.616728|    0.774726|    0.010404|           5|   -1.589772|  5.0000e+01|  5.0000e+01|  5.0000e+01|
|         130|  7.0831e-01|   -3.663012|    0.778022|    0.010194|           5|   -1.383301|  5.0000e+01|  5.0000e+01|  5.0000e+01|
|         131|  7.0771e-01|   -3.645441|    0.780927|    0.010103|           5|   -1.181292|  5.0000e+01|  5.0000e+01|  5.0000e+01|
|         132|  7.0724e-01|   -3.665213|    0.783577|    0.010125|           5|   -1.145217|  5.0000e+01|  5.0000e+01|  5.0000e+01|
|         133|  7.1078e-01|   -3.651827|    0.785856|    0.010256|           5|   -1.034065|  5.0000e+01|  5.0000e+01|  5.0000e+01|
|         134|  7.1014e-01|   -3.684639|    0.787841|    0.010505|           5|   -1.422079|  5.0000e+01|  5.0000e+01|  5.0000e+01|
|         135|  7.1303e-01|   -3.678193|    0.789518|    0.010863|           5|   -1.416032|  5.0000e+01|  5.0000e+01|  5.0000e+01|
|         136|  7.1244e-01|   -3.681901|    0.790866|    0.011325|           5|   -1.282500|  5.0000e+01|  5.0000e+01|  5.0000e+01|
|         137|  7.1427e-01|   -3.652850|    0.791846|    0.011872|           5|   -1.084755|  5.0000e+01|  5.0000e+01|  5.0000e+01|
|         138|  7.1505e-01|   -3.590527|    0.792518|    0.012523|           5|   -1.337935|  5.0000e+01|  5.0000e+01|  5.0000e+01|
|         139|  7.1442e-01|   -3.626876|    0.792858|    0.013249|           5|   -1.282234|  5.0000e+01|  5.0000e+01|  5.0000e+01|
|         140|  7.1685e-01|   -3.571256|    0.792859|    0.014036|           5|   -1.369587|  5.0000e+01|  5.0000e+01|  5.0000e+01|
|         141|  7.1643e-01|   -3.615721|    0.792568|    0.014874|           5|   -0.889690|  5.0000e+01|  5.0000e+01|  5.0000e+01|
|         142|  7.1789e-01|   -3.649896|    0.791922|    0.015759|           5|   -1.569942|  5.0000e+01|  5.0000e+01|  5.0000e+01|
|         143|  7.1781e-01|   -3.668123|    0.790965|    0.016669|           5|   -1.167980|  5.0000e+01|  5.0000e+01|  5.0000e+01|
|         144|  7.1912e-01|   -3.661705|    0.789735|    0.017594|           5|   -1.407977|  5.0000e+01|  5.0000e+01|  5.0000e+01|
|         145|  7.1849e-01|   -3.675754|    0.788231|    0.018520|           5|   -1.158204|  5.0000e+01|  5.0000e+01|  5.0000e+01|
|         146|  7.2001e-01|   -3.684919|    0.786449|    0.019436|           5|   -1.315466|  5.0000e+01|  5.0000e+01|  5.0000e+01|
|         147|  7.2118e-01|   -3.693640|    0.784577|    0.020338|           5|   -1.351567|  5.0000e+01|  5.0000e+01|  5.0000e+01|
|         148|  7.2135e-01|   -3.715963|    0.782467|    0.021204|           5|   -1.517870|  5.0000e+01|  5.0000e+01|  5.0000e+01|
|         149|  7.2224e-01|   -3.720067|    0.780292|    0.022022|           5|   -1.413623|  5.0000e+01|  5.0000e+01|  5.0000e+01|
|         150|  7.2279e-01|   -3.731683|    0.777973|    0.022797|           5|   -1.383266|  5.0000e+01|  5.0000e+01|  5.0000e+01|
|         151|  7.2448e-01|   -3.744845|    0.775624|    0.023510|           5|   -1.397782|  5.0000e+01|  5.0000e+01|  5.0000e+01|
|         152|  7.2387e-01|   -3.749041|    0.773236|    0.024160|           5|   -1.571099|  5.0000e+01|  5.0000e+01|  5.0000e+01|
|         153|  7.2325e-01|   -3.764305|    0.770887|    0.024736|           5|   -1.337402|  5.0000e+01|  5.0000e+01|  5.0000e+01|
|         154|  7.2479e-01|   -3.772160|    0.768561|    0.025243|           5|   -1.407134|  5.0000e+01|  5.0000e+01|  5.0000e+01|
|         155|  7.2420e-01|   -3.784771|    0.766297|    0.025674|           5|   -1.479610|  5.0000e+01|  5.0000e+01|  5.0000e+01|
|         156|  7.2547e-01|   -3.790926|    0.764119|    0.026024|           5|   -1.667000|  5.0000e+01|  5.0000e+01|  5.0000e+01|
|         157|  7.2514e-01|   -3.804795|    0.762082|    0.026292|           5|   -1.628008|  5.0000e+01|  5.0000e+01|  5.0000e+01|
|         158|  7.2453e-01|   -3.813527|    0.760213|    0.026489|           5|   -1.624589|  5.0000e+01|  5.0000e+01|  5.0000e+01|
|         159|  7.2587e-01|   -3.820829|    0.758467|    0.026598|           5|   -1.778538|  5.0000e+01|  5.0000e+01|  5.0000e+01|
|         160|  7.2526e-01|   -3.829033|    0.756947|    0.026636|           5|   -1.634087|  5.0000e+01|  5.0000e+01|  5.0000e+01|
|         161|  7.2464e-01|   -3.833688|    0.755573|    0.026603|           5|   -1.507185|  5.0000e+01|  5.0000e+01|  5.0000e+01|
|         162|  7.2594e-01|   -3.836157|    0.754484|    0.026504|           5|   -1.636065|  5.0000e+01|  5.0000e+01|  5.0000e+01|
|         163|  7.2526e-01|   -3.839926|    0.753591|    0.026337|           5|   -1.608953|  5.0000e+01|  5.0000e+01|  5.0000e+01|
|         164|  7.2651e-01|   -3.840032|    0.752964|    0.026116|           5|   -1.756538|  5.0000e+01|  5.0000e+01|  5.0000e+01|
|         165|  7.2597e-01|   -3.836957|    0.752554|    0.025837|           5|   -1.814801|  5.0000e+01|  5.0000e+01|  5.0000e+01|
|         166|  7.2611e-01|   -3.833779|    0.752406|    0.025515|           5|   -1.818296|  5.0000e+01|  5.0000e+01|  5.0000e+01|
|         167|  7.2683e-01|   -3.827588|    0.752522|    0.025150|           5|   -1.860431|  5.0000e+01|  5.0000e+01|  5.0000e+01|
|         168|  7.2633e-01|   -3.820439|    0.752887|    0.024751|           5|   -1.713968|  5.0000e+01|  5.0000e+01|  5.0000e+01|
|         169|  7.2733e-01|   -3.811802|    0.753446|    0.024327|           5|   -1.711892|  5.0000e+01|  5.0000e+01|  5.0000e+01|
|         170|  7.2683e-01|   -3.803189|    0.754278|    0.023882|           5|   -1.968763|  5.0000e+01|  5.0000e+01|  5.0000e+01|
|         171|  7.2806e-01|   -3.796239|    0.755336|    0.023420|           5|   -1.919221|  5.0000e+01|  5.0000e+01|  5.0000e+01|
|         172|  7.2753e-01|   -3.787954|    0.756548|    0.022956|           5|   -2.008631|  5.0000e+01|  5.0000e+01|  5.0000e+01|
|         173|  7.2696e-01|   -3.780984|    0.757994|    0.022487|           5|   -1.894952|  5.0000e+01|  5.0000e+01|  5.0000e+01|
|         174|  7.2830e-01|   -3.773080|    0.759579|    0.022027|           5|   -1.947711|  5.0000e+01|  5.0000e+01|  5.0000e+01|
|         175|  7.2779e-01|   -3.769105|    0.761329|    0.021575|           5|   -1.905988|  5.0000e+01|  5.0000e+01|  5.0000e+01|
|         176|  7.2718e-01|   -3.764715|    0.763184|    0.021131|           5|   -1.723310|  5.0000e+01|  5.0000e+01|  5.0000e+01|
|         177|  7.2811e-01|   -3.761725|    0.765185|    0.020719|           5|   -1.803156|  5.0000e+01|  5.0000e+01|  5.0000e+01|
|         178|  7.2757e-01|   -3.760776|    0.767241|    0.020325|           5|   -1.836199|  5.0000e+01|  5.0000e+01|  5.0000e+01|
|         179|  7.2848e-01|   -3.761439|    0.769372|    0.019956|           5|   -1.893668|  5.0000e+01|  5.0000e+01|  5.0000e+01|
|         180|  7.2795e-01|   -3.763459|    0.771565|    0.019613|           5|   -1.811834|  5.0000e+01|  5.0000e+01|  5.0000e+01|
|         181|  7.2750e-01|   -3.766730|    0.773792|    0.019302|           5|   -1.733992|  5.0000e+01|  5.0000e+01|  5.0000e+01|
|         182|  7.2829e-01|   -3.772762|    0.776025|    0.019022|           5|   -1.729735|  5.0000e+01|  5.0000e+01|  5.0000e+01|
|         183|  7.2782e-01|   -3.778553|    0.778274|    0.018774|           5|   -1.544967|  5.0000e+01|  5.0000e+01|  5.0000e+01|
|         184|  7.2738e-01|   -3.788021|    0.780535|    0.018560|           5|   -1.666553|  5.0000e+01|  5.0000e+01|  5.0000e+01|
|         185|  7.2848e-01|   -3.796076|    0.782751|    0.018377|           5|   -1.653824|  5.0000e+01|  5.0000e+01|  5.0000e+01|
|         186|  7.2827e-01|   -3.810639|    0.784929|    0.018225|           5|   -1.423536|  5.0000e+01|  5.0000e+01|  5.0000e+01|
|         187|  7.2780e-01|   -3.821038|    0.787057|    0.018104|           5|   -1.471560|  5.0000e+01|  5.0000e+01|  5.0000e+01|
|         188|  7.2964e-01|   -3.836499|    0.789106|    0.018012|           5|   -1.656005|  5.0000e+01|  5.0000e+01|  5.0000e+01|
|         189|  7.2907e-01|   -3.851870|    0.791065|    0.017948|           5|   -1.628655|  5.0000e+01|  5.0000e+01|  5.0000e+01|
|         190|  7.2940e-01|   -3.865050|    0.792923|    0.017909|           5|   -1.647843|  5.0000e+01|  5.0000e+01|  5.0000e+01|
|         191|  7.3014e-01|   -3.881773|    0.794646|    0.017894|           5|   -1.547391|  5.0000e+01|  5.0000e+01|  5.0000e+01|
|         192|  7.2965e-01|   -3.892281|    0.796256|    0.017901|           5|   -1.566893|  5.0000e+01|  5.0000e+01|  5.0000e+01|
|         193|  7.3146e-01|   -3.905505|    0.797725|    0.017927|           5|   -1.619548|  5.0000e+01|  5.0000e+01|  5.0000e+01|
|         194|  7.3097e-01|   -3.910127|    0.799051|    0.017969|           5|   -1.506839|  5.0000e+01|  5.0000e+01|  5.0000e+01|
|         195|  7.3153e-01|   -3.921133|    0.800195|    0.018024|           5|   -1.583429|  5.0000e+01|  5.0000e+01|  5.0000e+01|
|         196|  7.3196e-01|   -3.927691|    0.801214|    0.018090|           5|   -1.483297|  5.0000e+01|  5.0000e+01|  5.0000e+01|
|         197|  7.3141e-01|   -3.931193|    0.802064|    0.018164|           5|   -1.463027|  5.0000e+01|  5.0000e+01|  5.0000e+01|
|         198|  7.3242e-01|   -3.928078|    0.802749|    0.018243|           5|   -1.452171|  5.0000e+01|  5.0000e+01|  5.0000e+01|
|         199|  7.3191e-01|   -3.924366|    0.803260|    0.018324|           5|   -1.716773|  5.0000e+01|  5.0000e+01|  5.0000e+01|
|         200|  7.3291e-01|   -3.917564|    0.803595|    0.018404|           5|   -1.416780|  5.0000e+01|  5.0000e+01|  5.0000e+01|
|         201|  7.3240e-01|   -3.907896|    0.803759|    0.018480|           5|   -1.319410|  5.0000e+01|  5.0000e+01|  5.0000e+01|
|         202|  7.3195e-01|   -3.895430|    0.803754|    0.018550|           5|   -1.331042|  5.0000e+01|  5.0000e+01|  5.0000e+01|
|         203|  7.3269e-01|   -3.886486|    0.803596|    0.018614|           5|   -1.393384|  5.0000e+01|  5.0000e+01|  5.0000e+01|
|         204|  7.3224e-01|   -3.876727|    0.803272|    0.018668|           5|   -1.558762|  5.0000e+01|  5.0000e+01|  5.0000e+01|
|         205|  7.3336e-01|   -3.868511|    0.802811|    0.018715|           5|   -1.200820|  5.0000e+01|  5.0000e+01|  5.0000e+01|
|         206|  7.3287e-01|   -3.860704|    0.802211|    0.018749|           5|   -1.128426|  5.0000e+01|  5.0000e+01|  5.0000e+01|
|         207|  7.3237e-01|   -3.850673|    0.801478|    0.018771|           5|   -1.163735|  5.0000e+01|  5.0000e+01|  5.0000e+01|
|         208|  7.3191e-01|   -3.847374|    0.800625|    0.018782|           5|   -1.466336|  5.0000e+01|  5.0000e+01|  5.0000e+01|
|         209|  7.3293e-01|   -3.841468|    0.799686|    0.018782|           5|   -1.206672|  5.0000e+01|  5.0000e+01|  5.0000e+01|
|         210|  7.3247e-01|   -3.842281|    0.798685|    0.018772|           5|   -1.209321|  5.0000e+01|  5.0000e+01|  5.0000e+01|
|         211|  7.3348e-01|   -3.835437|    0.797603|    0.018749|           5|   -1.258004|  5.0000e+01|  5.0000e+01|  5.0000e+01|
|         212|  7.3302e-01|   -3.839570|    0.796520|    0.018719|           5|   -0.836116|  5.0000e+01|  5.0000e+01|  5.0000e+01|
|         213|  7.3260e-01|   -3.835083|    0.795345|    0.018678|           5|   -1.495970|  5.0000e+01|  5.0000e+01|  5.0000e+01|
|         214|  7.3336e-01|   -3.850652|    0.794200|    0.018630|           5|   -0.903580|  5.0000e+01|  5.0000e+01|  5.0000e+01|
|         215|  7.3288e-01|   -3.841848|    0.793002|    0.018574|           5|   -1.160234|  5.0000e+01|  5.0000e+01|  5.0000e+01|
|         216|  7.3349e-01|   -3.858579|    0.791811|    0.018515|           5|   -1.310685|  5.0000e+01|  5.0000e+01|  5.0000e+01|
|         217|  7.3305e-01|   -3.871534|    0.790659|    0.018455|           5|   -1.408829|  5.0000e+01|  5.0000e+01|  5.0000e+01|
|         218|  7.3258e-01|   -3.864377|    0.789543|    0.018394|           5|   -1.206103|  5.0000e+01|  5.0000e+01|  5.0000e+01|
|         219|  7.3326e-01|   -3.898597|    0.788494|    0.018336|           5|   -1.068159|  5.0000e+01|  5.0000e+01|  5.0000e+01|
|         220|  7.3285e-01|   -3.903116|    0.787495|    0.018285|           5|   -1.130147|  5.0000e+01|  5.0000e+01|  5.0000e+01|
|         221|  7.3245e-01|   -3.887881|    0.786531|    0.018240|           5|   -1.387768|  5.0000e+01|  5.0000e+01|  5.0000e+01|
|         222|  7.3356e-01|   -3.936654|    0.785653|    0.018206|           5|   -1.062588|  5.0000e+01|  5.0000e+01|  5.0000e+01|
|         223|  7.3311e-01|   -3.948633|    0.784805|    0.018182|           5|   -1.190546|  5.0000e+01|  5.0000e+01|  5.0000e+01|
|         224|  7.3267e-01|   -3.962478|    0.784034|    0.018175|           5|   -1.310854|  5.0000e+01|  5.0000e+01|  5.0000e+01|
|         225|  7.3396e-01|   -3.967893|    0.783352|    0.018187|           5|   -1.326619|  5.0000e+01|  5.0000e+01|  5.0000e+01|
|         226|  7.3352e-01|   -3.996020|    0.782752|    0.018214|           5|   -0.978406|  5.0000e+01|  5.0000e+01|  5.0000e+01|
|         227|  7.3379e-01|   -3.987660|    0.782193|    0.018262|           5|   -1.159838|  5.0000e+01|  5.0000e+01|  5.0000e+01|
|         228|  7.3461e-01|   -4.004506|    0.781719|    0.018329|           5|   -1.295490|  5.0000e+01|  5.0000e+01|  5.0000e+01|
|         229|  7.3413e-01|   -3.999195|    0.781330|    0.018413|           5|   -1.093988|  5.0000e+01|  5.0000e+01|  5.0000e+01|
|         230|  7.3550e-01|   -3.968589|    0.780973|    0.018515|           5|   -1.317468|  5.0000e+01|  5.0000e+01|  5.0000e+01|
|         231|  7.3510e-01|   -3.994304|    0.780686|    0.018632|           5|   -1.140672|  5.0000e+01|  5.0000e+01|  5.0000e+01|
|         232|  7.3572e-01|   -3.990288|    0.780437|    0.018764|           5|   -1.464949|  5.0000e+01|  5.0000e+01|  5.0000e+01|
|         233|  7.3613e-01|   -3.983647|    0.780213|    0.018905|           5|   -1.440807|  5.0000e+01|  5.0000e+01|  5.0000e+01|
|         234|  7.3569e-01|   -3.981054|    0.780026|    0.019057|           5|   -1.276486|  5.0000e+01|  5.0000e+01|  5.0000e+01|
|         235|  7.3658e-01|   -3.974813|    0.779858|    0.019215|           5|   -1.618644|  5.0000e+01|  5.0000e+01|  5.0000e+01|
|         236|  7.3618e-01|   -3.968620|    0.779726|    0.019382|           5|   -1.650928|  5.0000e+01|  5.0000e+01|  5.0000e+01|
|         237|  7.3711e-01|   -3.964287|    0.779600|    0.019549|           5|   -1.446573|  5.0000e+01|  5.0000e+01|  5.0000e+01|
|         238|  7.3670e-01|   -3.963090|    0.779511|    0.019717|           5|   -1.558401|  5.0000e+01|  5.0000e+01|  5.0000e+01|
|         239|  7.3618e-01|   -3.962364|    0.779444|    0.019883|           5|   -1.417143|  5.0000e+01|  5.0000e+01|  5.0000e+01|
|         240|  7.3685e-01|   -3.962876|    0.779413|    0.020043|           5|   -1.357418|  5.0000e+01|  5.0000e+01|  5.0000e+01|
|         241|  7.3636e-01|   -3.962112|    0.779404|    0.020197|           5|   -1.321462|  5.0000e+01|  5.0000e+01|  5.0000e+01|
|         242|  7.3721e-01|   -3.956346|    0.779418|    0.020338|           5|   -1.189907|  5.0000e+01|  5.0000e+01|  5.0000e+01|
|         243|  7.3681e-01|   -3.936719|    0.779462|    0.020463|           5|   -1.022439|  5.0000e+01|  5.0000e+01|  5.0000e+01|
|         244|  7.3637e-01|   -3.903051|    0.779519|    0.020568|           5|   -0.978807|  5.0000e+01|  5.0000e+01|  5.0000e+01|
|         245|  7.3705e-01|   -3.859569|    0.779577|    0.020653|           5|   -1.260855|  5.0000e+01|  5.0000e+01|  5.0000e+01|
|         246|  7.3679e-01|   -3.910868|    0.779630|    0.020710|           5|   -1.147893|  5.0000e+01|  5.0000e+01|  5.0000e+01|
|         247|  7.3641e-01|   -3.823904|    0.779666|    0.020737|           5|   -1.222199|  5.0000e+01|  5.0000e+01|  5.0000e+01|
|         248|  7.3705e-01|   -3.843137|    0.779700|    0.020736|           5|   -1.279733|  5.0000e+01|  5.0000e+01|  5.0000e+01|
|         249|  7.3666e-01|   -3.879804|    0.779706|    0.020699|           5|   -1.165976|  5.0000e+01|  5.0000e+01|  5.0000e+01|
|         250|  7.3629e-01|   -3.924035|    0.779712|    0.020634|           5|   -0.802470|  5.0000e+01|  5.0000e+01|  5.0000e+01|
|         251|  7.3689e-01|   -3.770951|    0.779707|    0.020534|           5|   -1.325308|  5.0000e+01|  5.0000e+01|  5.0000e+01|
|         252|  7.3651e-01|   -3.943336|    0.779703|    0.020401|           5|   -1.156279|  5.0000e+01|  5.0000e+01|  5.0000e+01|
|         253|  7.3718e-01|   -3.969550|    0.779684|    0.020233|           5|   -1.128547|  5.0000e+01|  5.0000e+01|  5.0000e+01|
|         254|  7.3680e-01|   -3.909781|    0.779666|    0.020051|           5|   -0.779501|  5.0000e+01|  5.0000e+01|  5.0000e+01|
|         255|  7.3761e-01|   -3.934348|    0.779635|    0.019833|           5|   -0.956905|  5.0000e+01|  5.0000e+01|  5.0000e+01|
|         256|  7.3713e-01|   -3.886600|    0.779592|    0.019576|           5|   -1.262859|  5.0000e+01|  5.0000e+01|  5.0000e+01|
|         257|  7.3776e-01|   -4.069918|    0.779564|    0.019309|           5|   -0.818612|  5.0000e+01|  5.0000e+01|  5.0000e+01|
|         258|  7.3760e-01|   -4.042781|    0.779536|    0.019004|           5|   -1.310354|  5.0000e+01|  5.0000e+01|  5.0000e+01|
|         259|  7.3730e-01|   -3.999830|    0.779525|    0.018682|           5|   -1.281328|  5.0000e+01|  5.0000e+01|  5.0000e+01|
|         260|  7.3794e-01|   -4.120991|    0.779515|    0.018350|           5|   -1.150406|  5.0000e+01|  5.0000e+01|  5.0000e+01|
|         261|  7.3749e-01|   -4.131192|    0.779533|    0.018005|           5|   -1.159302|  5.0000e+01|  5.0000e+01|  5.0000e+01|
|         262|  7.3825e-01|   -4.165666|    0.779567|    0.017646|           5|   -1.230105|  5.0000e+01|  5.0000e+01|  5.0000e+01|
|         263|  7.3783e-01|   -4.157318|    0.779604|    0.017282|           5|   -1.036676|  5.0000e+01|  5.0000e+01|  5.0000e+01|
|         264|  7.3748e-01|   -4.179245|    0.779651|    0.016916|           5|   -1.193583|  5.0000e+01|  5.0000e+01|  5.0000e+01|
|         265|  7.3709e-01|   -4.185427|    0.779707|    0.016550|           5|   -1.409554|  5.0000e+01|  5.0000e+01|  5.0000e+01|
|         266|  7.3788e-01|   -4.182407|    0.779784|    0.016198|           5|   -1.001750|  5.0000e+01|  5.0000e+01|  5.0000e+01|
|         267|  7.3749e-01|   -4.178939|    0.779827|    0.015846|           5|   -1.452351|  5.0000e+01|  5.0000e+01|  5.0000e+01|
|         268|  7.3863e-01|   -4.183054|    0.779893|    0.015508|           5|   -1.383397|  5.0000e+01|  5.0000e+01|  5.0000e+01|
|         269|  7.3826e-01|   -4.181520|    0.779952|    0.015188|           5|   -1.758131|  5.0000e+01|  5.0000e+01|  5.0000e+01|
|         270|  7.3789e-01|   -4.185437|    0.780009|    0.014890|           5|   -1.854030|  5.0000e+01|  5.0000e+01|  5.0000e+01|
|         271|  7.3908e-01|   -4.188400|    0.780060|    0.014620|           5|   -1.644480|  5.0000e+01|  5.0000e+01|  5.0000e+01|
|         272|  7.3865e-01|   -4.195820|    0.780098|    0.014378|           5|   -1.478114|  5.0000e+01|  5.0000e+01|  5.0000e+01|
|         273|  7.3982e-01|   -4.200523|    0.780133|    0.014170|           5|   -1.409160|  5.0000e+01|  5.0000e+01|  5.0000e+01|
|         274|  7.3943e-01|   -4.210403|    0.780143|    0.013997|           5|   -1.306506|  5.0000e+01|  5.0000e+01|  5.0000e+01|
|         275|  7.3905e-01|   -4.219940|    0.780139|    0.013866|           5|   -1.023853|  5.0000e+01|  5.0000e+01|  5.0000e+01|
|         276|  7.3990e-01|   -4.233262|    0.780108|    0.013771|           5|   -1.618070|  5.0000e+01|  5.0000e+01|  5.0000e+01|
|         277|  7.3956e-01|   -4.249936|    0.780048|    0.013717|           5|   -1.608161|  5.0000e+01|  5.0000e+01|  5.0000e+01|
|         278|  7.4015e-01|   -4.263932|    0.779965|    0.013704|           5|   -1.568377|  5.0000e+01|  5.0000e+01|  5.0000e+01|
|         279|  7.3976e-01|   -4.283500|    0.779836|    0.013732|           5|   -1.449283|  5.0000e+01|  5.0000e+01|  5.0000e+01|
|         280|  7.4049e-01|   -4.301602|    0.779663|    0.013801|           5|   -1.429216|  5.0000e+01|  5.0000e+01|  5.0000e+01|
|         281|  7.4007e-01|   -4.316751|    0.779443|    0.013909|           5|   -1.424173|  5.0000e+01|  5.0000e+01|  5.0000e+01|
|         282|  7.3964e-01|   -4.332983|    0.779173|    0.014056|           5|   -1.471938|  5.0000e+01|  5.0000e+01|  5.0000e+01|
|         283|  7.4005e-01|   -4.353639|    0.778851|    0.014237|           5|   -1.449390|  5.0000e+01|  5.0000e+01|  5.0000e+01|
|         284|  7.3964e-01|   -4.368978|    0.778477|    0.014451|           5|   -1.428577|  5.0000e+01|  5.0000e+01|  5.0000e+01|
|         285|  7.3926e-01|   -4.381863|    0.778038|    0.014694|           5|   -1.430204|  5.0000e+01|  5.0000e+01|  5.0000e+01|
|         286|  7.3991e-01|   -4.393558|    0.777544|    0.014963|           5|   -1.467129|  5.0000e+01|  5.0000e+01|  5.0000e+01|
|         287|  7.3952e-01|   -4.402495|    0.776974|    0.015254|           5|   -1.446117|  5.0000e+01|  5.0000e+01|  5.0000e+01|
|         288|  7.3915e-01|   -4.408650|    0.776346|    0.015562|           5|   -1.397743|  5.0000e+01|  5.0000e+01|  5.0000e+01|
|         289|  7.4006e-01|   -4.409731|    0.775670|    0.015878|           5|   -1.032379|  5.0000e+01|  5.0000e+01|  5.0000e+01|
|         290|  7.3968e-01|   -4.410544|    0.774919|    0.016206|           5|   -1.538906|  5.0000e+01|  5.0000e+01|  5.0000e+01|
|         291|  7.3927e-01|   -4.413786|    0.774112|    0.016537|           5|   -1.481302|  5.0000e+01|  5.0000e+01|  5.0000e+01|
|         292|  7.4026e-01|   -4.411505|    0.773245|    0.016867|           5|   -1.470384|  5.0000e+01|  5.0000e+01|  5.0000e+01|
|         293|  7.3988e-01|   -4.410995|    0.772325|    0.017190|           5|   -1.395315|  5.0000e+01|  5.0000e+01|  5.0000e+01|
|         294|  7.4014e-01|   -4.408956|    0.771358|    0.017503|           5|   -1.484476|  5.0000e+01|  5.0000e+01|  5.0000e+01|
|         295|  7.4030e-01|   -4.405751|    0.770337|    0.017802|           5|   -1.469226|  5.0000e+01|  5.0000e+01|  5.0000e+01|
|         296|  7.3989e-01|   -4.408111|    0.769286|    0.018079|           5|   -1.365472|  5.0000e+01|  5.0000e+01|  5.0000e+01|
|         297|  7.4046e-01|   -4.410712|    0.768212|    0.018333|           5|   -1.310212|  5.0000e+01|  5.0000e+01|  5.0000e+01|
|         298|  7.4009e-01|   -4.402357|    0.767111|    0.018560|           5|   -1.217299|  5.0000e+01|  5.0000e+01|  5.0000e+01|
|         299|  7.4080e-01|   -4.409226|    0.765991|    0.018756|           5|   -1.175462|  5.0000e+01|  5.0000e+01|  5.0000e+01|
|         300|  7.4046e-01|   -4.408901|    0.764862|    0.018921|           5|   -1.246780|  5.0000e+01|  5.0000e+01|  5.0000e+01|
|         301|  7.4014e-01|   -4.409438|    0.763717|    0.019050|           5|   -1.173742|  5.0000e+01|  5.0000e+01|  5.0000e+01|
|         302|  7.4084e-01|   -4.403090|    0.762602|    0.019141|           5|   -0.915629|  5.0000e+01|  5.0000e+01|  5.0000e+01|
|         303|  7.4048e-01|   -4.399311|    0.761480|    0.019196|           5|   -0.941878|  5.0000e+01|  5.0000e+01|  5.0000e+01|
|         304|  7.4008e-01|   -4.387316|    0.760370|    0.019212|           5|   -1.102579|  5.0000e+01|  5.0000e+01|  5.0000e+01|
|         305|  7.4054e-01|   -4.402168|    0.759312|    0.019189|           5|   -0.963267|  5.0000e+01|  5.0000e+01|  5.0000e+01|
|         306|  7.4018e-01|   -4.395052|    0.758297|    0.019130|           5|   -0.988816|  5.0000e+01|  5.0000e+01|  5.0000e+01|
|         307|  7.4084e-01|   -4.307102|    0.757280|    0.019031|           5|   -1.021928|  5.0000e+01|  5.0000e+01|  5.0000e+01|
|         308|  7.4048e-01|   -4.391323|    0.756334|    0.018899|           5|   -0.920078|  5.0000e+01|  5.0000e+01|  5.0000e+01|
|         309|  7.4009e-01|   -4.401412|    0.755436|    0.018734|           5|   -0.922137|  5.0000e+01|  5.0000e+01|  5.0000e+01|
|         310|  7.3966e-01|   -4.403679|    0.754590|    0.018537|           5|   -0.941623|  5.0000e+01|  5.0000e+01|  5.0000e+01|
|         311|  7.4032e-01|   -4.418970|    0.753803|    0.018310|           5|   -0.926394|  5.0000e+01|  5.0000e+01|  5.0000e+01|
|         312|  7.3998e-01|   -4.379829|    0.753068|    0.018054|           5|   -0.825376|  5.0000e+01|  5.0000e+01|  5.0000e+01|
|         313|  7.4091e-01|   -4.391949|    0.752456|    0.017794|           5|   -0.760945|  5.0000e+01|  5.0000e+01|  5.0000e+01|
|         314|  7.4065e-01|   -4.374343|    0.751884|    0.017507|           5|   -0.757134|  5.0000e+01|  5.0000e+01|  5.0000e+01|
|         315|  7.4031e-01|   -4.394830|    0.751359|    0.017190|           5|   -0.923861|  5.0000e+01|  5.0000e+01|  5.0000e+01|
|         316|  7.4102e-01|   -4.420821|    0.750926|    0.016871|           5|   -0.962807|  5.0000e+01|  5.0000e+01|  5.0000e+01|
|         317|  7.4069e-01|   -4.412254|    0.750562|    0.016542|           5|   -0.826229|  5.0000e+01|  5.0000e+01|  5.0000e+01|
|         318|  7.4117e-01|   -4.340831|    0.750272|    0.016212|           5|   -0.824623|  5.0000e+01|  5.0000e+01|  5.0000e+01|
|         319|  7.4077e-01|   -4.372764|    0.750054|    0.015884|           5|   -0.864251|  5.0000e+01|  5.0000e+01|  5.0000e+01|
|         320|  7.4088e-01|   -4.395964|    0.749896|    0.015558|           5|   -0.824133|  5.0000e+01|  5.0000e+01|  5.0000e+01|
|         321|  7.4105e-01|   -4.403284|    0.749801|    0.015231|           5|   -0.916657|  5.0000e+01|  5.0000e+01|  5.0000e+01|
|         322|  7.4076e-01|   -4.418140|    0.749768|    0.014940|           5|   -0.646541|  5.0000e+01|  5.0000e+01|  5.0000e+01|
|         323|  7.4045e-01|   -4.376500|    0.749781|    0.014643|           5|   -0.752397|  5.0000e+01|  5.0000e+01|  5.0000e+01|
|         324|  7.4106e-01|   -4.423390|    0.749842|    0.014355|           5|   -0.852274|  5.0000e+01|  5.0000e+01|  5.0000e+01|
|         325|  7.4068e-01|   -4.397804|    0.749949|    0.014080|           5|   -0.797574|  5.0000e+01|  5.0000e+01|  5.0000e+01|
|         326|  7.4115e-01|   -4.404176|    0.750100|    0.013827|           5|   -0.936950|  5.0000e+01|  5.0000e+01|  5.0000e+01|
|         327|  7.4079e-01|   -4.438226|    0.750286|    0.013598|           5|   -1.026155|  5.0000e+01|  5.0000e+01|  5.0000e+01|
|         328|  7.4046e-01|   -4.463120|    0.750496|    0.013397|           5|   -1.015163|  5.0000e+01|  5.0000e+01|  5.0000e+01|
|         329|  7.4095e-01|   -4.451169|    0.750729|    0.013231|           5|   -0.860115|  5.0000e+01|  5.0000e+01|  5.0000e+01|
|         330|  7.4062e-01|   -4.426179|    0.750982|    0.013091|           5|   -0.975572|  5.0000e+01|  5.0000e+01|  5.0000e+01|
|         331|  7.4029e-01|   -4.445519|    0.751230|    0.012990|           5|   -0.744240|  5.0000e+01|  5.0000e+01|  5.0000e+01|
|         332|  7.4082e-01|   -4.426308|    0.751487|    0.012912|           5|   -0.968218|  5.0000e+01|  5.0000e+01|  5.0000e+01|
|         333|  7.4049e-01|   -4.443283|    0.751741|    0.012864|           5|   -0.913978|  5.0000e+01|  5.0000e+01|  5.0000e+01|
|         334|  7.4068e-01|   -4.443564|    0.751981|    0.012848|           5|   -0.776160|  5.0000e+01|  5.0000e+01|  5.0000e+01|
|         335|  7.4073e-01|   -4.410085|    0.752188|    0.012861|           5|   -0.573108|  5.0000e+01|  5.0000e+01|  5.0000e+01|
|         336|  7.4045e-01|   -4.398571|    0.752366|    0.012898|           5|   -0.610603|  5.0000e+01|  5.0000e+01|  5.0000e+01|
|         337|  7.4099e-01|   -4.407651|    0.752524|    0.012961|           5|   -0.798990|  5.0000e+01|  5.0000e+01|  5.0000e+01|
|         338|  7.4067e-01|   -4.431128|    0.752656|    0.013052|           5|   -0.946223|  5.0000e+01|  5.0000e+01|  5.0000e+01|
|         339|  7.4032e-01|   -4.428983|    0.752744|    0.013167|           5|   -1.135394|  5.0000e+01|  5.0000e+01|  5.0000e+01|
|         340|  7.4085e-01|   -4.441704|    0.752782|    0.013303|           5|   -0.958518|  5.0000e+01|  5.0000e+01|  5.0000e+01|
|         341|  7.4056e-01|   -4.451609|    0.752766|    0.013459|           5|   -0.974035|  5.0000e+01|  5.0000e+01|  5.0000e+01|
|         342|  7.4039e-01|   -4.471071|    0.752696|    0.013627|           5|   -0.844976|  5.0000e+01|  5.0000e+01|  5.0000e+01|
|         343|  7.4075e-01|   -4.457578|    0.752567|    0.013811|           5|   -0.834764|  5.0000e+01|  5.0000e+01|  5.0000e+01|
|         344|  7.4047e-01|   -4.462082|    0.752378|    0.014006|           5|   -0.835810|  5.0000e+01|  5.0000e+01|  5.0000e+01|
|         345|  7.4109e-01|   -4.432467|    0.752127|    0.014208|           5|   -1.002139|  5.0000e+01|  5.0000e+01|  5.0000e+01|
|         346|  7.4073e-01|   -4.481073|    0.751823|    0.014409|           5|   -1.104458|  5.0000e+01|  5.0000e+01|  5.0000e+01|
|         347|  7.4042e-01|   -4.505459|    0.751458|    0.014612|           5|   -1.161494|  5.0000e+01|  5.0000e+01|  5.0000e+01|
|         348|  7.4074e-01|   -4.511446|    0.751039|    0.014812|           5|   -1.106420|  5.0000e+01|  5.0000e+01|  5.0000e+01|
|         349|  7.4040e-01|   -4.519076|    0.750567|    0.015007|           5|   -0.964842|  5.0000e+01|  5.0000e+01|  5.0000e+01|
|         350|  7.4062e-01|   -4.518736|    0.750043|    0.015194|           5|   -1.117750|  5.0000e+01|  5.0000e+01|  5.0000e+01|
|         351|  7.4062e-01|   -4.517655|    0.749461|    0.015374|           5|   -1.232904|  5.0000e+01|  5.0000e+01|  5.0000e+01|
|         352|  7.4027e-01|   -4.510221|    0.748832|    0.015541|           5|   -1.260222|  5.0000e+01|  5.0000e+01|  5.0000e+01|
|         353|  7.3993e-01|   -4.501514|    0.748174|    0.015689|           5|   -0.938978|  5.0000e+01|  5.0000e+01|  5.0000e+01|
|         354|  7.4055e-01|   -4.480766|    0.747470|    0.015823|           5|   -0.993334|  5.0000e+01|  5.0000e+01|  5.0000e+01|
|         355|  7.4028e-01|   -4.459051|    0.746725|    0.015939|           5|   -1.207305|  5.0000e+01|  5.0000e+01|  5.0000e+01|
|         356|  7.4058e-01|   -4.459826|    0.745955|    0.016035|           5|   -1.120564|  5.0000e+01|  5.0000e+01|  5.0000e+01|
|         357|  7.4092e-01|   -4.445421|    0.745167|    0.016110|           5|   -1.032976|  5.0000e+01|  5.0000e+01|  5.0000e+01|
|         358|  7.4061e-01|   -4.427746|    0.744361|    0.016164|           5|   -0.979602|  5.0000e+01|  5.0000e+01|  5.0000e+01|
|         359|  7.4161e-01|   -4.411531|    0.743541|    0.016197|           5|   -1.254008|  5.0000e+01|  5.0000e+01|  5.0000e+01|
|         360|  7.4131e-01|   -4.406876|    0.742728|    0.016208|           5|   -1.063373|  5.0000e+01|  5.0000e+01|  5.0000e+01|
|         361|  7.4197e-01|   -4.394065|    0.741909|    0.016198|           5|   -1.099194|  5.0000e+01|  5.0000e+01|  5.0000e+01|
|         362|  7.4187e-01|   -4.388696|    0.741108|    0.016169|           5|   -1.027880|  5.0000e+01|  5.0000e+01|  5.0000e+01|
|         363|  7.4155e-01|   -4.382741|    0.740316|    0.016120|           5|   -1.017652|  5.0000e+01|  5.0000e+01|  5.0000e+01|
|         364|  7.4209e-01|   -4.370226|    0.739542|    0.016054|           5|   -1.216135|  5.0000e+01|  5.0000e+01|  5.0000e+01|
|         365|  7.4180e-01|   -4.380475|    0.738798|    0.015971|           5|   -1.062100|  5.0000e+01|  5.0000e+01|  5.0000e+01|
|         366|  7.4238e-01|   -4.376274|    0.738076|    0.015874|           5|   -1.190259|  5.0000e+01|  5.0000e+01|  5.0000e+01|
|         367|  7.4211e-01|   -4.385171|    0.737398|    0.015760|           5|   -1.257734|  5.0000e+01|  5.0000e+01|  5.0000e+01|
|         368|  7.4184e-01|   -4.387737|    0.736738|    0.015641|           5|   -1.229543|  5.0000e+01|  5.0000e+01|  5.0000e+01|
|         369|  7.4223e-01|   -4.401126|    0.736118|    0.015511|           5|   -1.291514|  5.0000e+01|  5.0000e+01|  5.0000e+01|
|         370|  7.4193e-01|   -4.416195|    0.735551|    0.015375|           5|   -1.143509|  5.0000e+01|  5.0000e+01|  5.0000e+01|
|         371|  7.4248e-01|   -4.427880|    0.735029|    0.015235|           5|   -1.047439|  5.0000e+01|  5.0000e+01|  5.0000e+01|
|         372|  7.4215e-01|   -4.440119|    0.734553|    0.015094|           5|   -1.183980|  5.0000e+01|  5.0000e+01|  5.0000e+01|
|         373|  7.4185e-01|   -4.437855|    0.734124|    0.014953|           5|   -1.252073|  5.0000e+01|  5.0000e+01|  5.0000e+01|
|         374|  7.4239e-01|   -4.464915|    0.733741|    0.014815|           5|   -1.248879|  5.0000e+01|  5.0000e+01|  5.0000e+01|
|         375|  7.4210e-01|   -4.480035|    0.733404|    0.014681|           5|   -1.198852|  5.0000e+01|  5.0000e+01|  5.0000e+01|
|         376|  7.4261e-01|   -4.494372|    0.733107|    0.014552|           5|   -1.204716|  5.0000e+01|  5.0000e+01|  5.0000e+01|
|         377|  7.4228e-01|   -4.495103|    0.732854|    0.014432|           5|   -1.070576|  5.0000e+01|  5.0000e+01|  5.0000e+01|
|         378|  7.4241e-01|   -4.501391|    0.732642|    0.014322|           5|   -0.923902|  5.0000e+01|  5.0000e+01|  5.0000e+01|
|         379|  7.4259e-01|   -4.493983|    0.732469|    0.014222|           5|   -0.921644|  5.0000e+01|  5.0000e+01|  5.0000e+01|
|         380|  7.4232e-01|   -4.491819|    0.732330|    0.014132|           5|   -1.019617|  5.0000e+01|  5.0000e+01|  5.0000e+01|
|         381|  7.4308e-01|   -4.465022|    0.732192|    0.014056|           5|   -0.666683|  5.0000e+01|  5.0000e+01|  5.0000e+01|
|         382|  7.4273e-01|   -4.445987|    0.732149|    0.013998|           5|   -0.967568|  5.0000e+01|  5.0000e+01|  5.0000e+01|
|         383|  7.4239e-01|   -4.449701|    0.732111|    0.013949|           5|   -0.990903|  5.0000e+01|  5.0000e+01|  5.0000e+01|
|         384|  7.4311e-01|   -4.441031|    0.732089|    0.013913|           5|   -0.983084|  5.0000e+01|  5.0000e+01|  5.0000e+01|
|         385|  7.4283e-01|   -4.421108|    0.732086|    0.013890|           5|   -1.030692|  5.0000e+01|  5.0000e+01|  5.0000e+01|
|         386|  7.4315e-01|   -4.424977|    0.732099|    0.013879|           5|   -1.047333|  5.0000e+01|  5.0000e+01|  5.0000e+01|
|         387|  7.4285e-01|   -4.412173|    0.732124|    0.013881|           5|   -0.934517|  5.0000e+01|  5.0000e+01|  5.0000e+01|
|         388|  7.4340e-01|   -4.407847|    0.732158|    0.013893|           5|   -1.028302|  5.0000e+01|  5.0000e+01|  5.0000e+01|
|         389|  7.4311e-01|   -4.394946|    0.732200|    0.013917|           5|   -0.987924|  5.0000e+01|  5.0000e+01|  5.0000e+01|
|         390|  7.4358e-01|   -4.384513|    0.732244|    0.013950|           5|   -1.025918|  5.0000e+01|  5.0000e+01|  5.0000e+01|
|         391|  7.4325e-01|   -4.383216|    0.732289|    0.013992|           5|   -1.035982|  5.0000e+01|  5.0000e+01|  5.0000e+01|
|         392|  7.4364e-01|   -4.389992|    0.732331|    0.014041|           5|   -0.943776|  5.0000e+01|  5.0000e+01|  5.0000e+01|
|         393|  7.4330e-01|   -4.394859|    0.732369|    0.014097|           5|   -1.048515|  5.0000e+01|  5.0000e+01|  5.0000e+01|
|         394|  7.4352e-01|   -4.397773|    0.732400|    0.014157|           5|   -1.171025|  5.0000e+01|  5.0000e+01|  5.0000e+01|
|         395|  7.4346e-01|   -4.398715|    0.732422|    0.014221|           5|   -1.137788|  5.0000e+01|  5.0000e+01|  5.0000e+01|
|         396|  7.4309e-01|   -4.415585|    0.732432|    0.014285|           5|   -1.053195|  5.0000e+01|  5.0000e+01|  5.0000e+01|
|         397|  7.4360e-01|   -4.433456|    0.732431|    0.014351|           5|   -1.071453|  5.0000e+01|  5.0000e+01|  5.0000e+01|
|         398|  7.4328e-01|   -4.422591|    0.732415|    0.014416|           5|   -1.137399|  5.0000e+01|  5.0000e+01|  5.0000e+01|
|         399|  7.4369e-01|   -4.452245|    0.732385|    0.014479|           5|   -1.072464|  5.0000e+01|  5.0000e+01|  5.0000e+01|
|         400|  7.4364e-01|   -4.450696|    0.732341|    0.014539|           5|   -1.141217|  5.0000e+01|  5.0000e+01|  5.0000e+01|
|         401|  7.4409e-01|   -4.488605|    0.732283|    0.014593|           5|   -0.931812|  5.0000e+01|  5.0000e+01|  5.0000e+01|
|         402|  7.4378e-01|   -4.499322|    0.732210|    0.014642|           5|   -0.975222|  5.0000e+01|  5.0000e+01|  5.0000e+01|
|         403|  7.4353e-01|   -4.518357|    0.732122|    0.014685|           5|   -0.821606|  5.0000e+01|  5.0000e+01|  5.0000e+01|
|         404|  7.4394e-01|   -4.515489|    0.732019|    0.014722|           5|   -1.069880|  5.0000e+01|  5.0000e+01|  5.0000e+01|
|         405|  7.4365e-01|   -4.544744|    0.731903|    0.014750|           5|   -0.985677|  5.0000e+01|  5.0000e+01|  5.0000e+01|
|         406|  7.4334e-01|   -4.561761|    0.731772|    0.014771|           5|   -0.908560|  5.0000e+01|  5.0000e+01|  5.0000e+01|
|         407|  7.4354e-01|   -4.543282|    0.731628|    0.014784|           5|   -1.012714|  5.0000e+01|  5.0000e+01|  5.0000e+01|
|         408|  7.4323e-01|   -4.551551|    0.731474|    0.014788|           5|   -0.897642|  5.0000e+01|  5.0000e+01|  5.0000e+01|
|         409|  7.4300e-01|   -4.541926|    0.731323|    0.014784|           5|   -0.712419|  5.0000e+01|  5.0000e+01|  5.0000e+01|
|         410|  7.4340e-01|   -4.505315|    0.731146|    0.014773|           5|   -1.112661|  5.0000e+01|  5.0000e+01|  5.0000e+01|
|         411|  7.4315e-01|   -4.539569|    0.730959|    0.014754|           5|   -0.963389|  5.0000e+01|  5.0000e+01|  5.0000e+01|
|         412|  7.4283e-01|   -4.534159|    0.730768|    0.014728|           5|   -0.877093|  5.0000e+01|  5.0000e+01|  5.0000e+01|
|         413|  7.4332e-01|   -4.511852|    0.730566|    0.014694|           5|   -0.872674|  5.0000e+01|  5.0000e+01|  5.0000e+01|
|         414|  7.4300e-01|   -4.509129|    0.730360|    0.014655|           5|   -1.077006|  5.0000e+01|  5.0000e+01|  5.0000e+01|
|         415|  7.4273e-01|   -4.511223|    0.730150|    0.014610|           5|   -1.183304|  5.0000e+01|  5.0000e+01|  5.0000e+01|
|         416|  7.4323e-01|   -4.506043|    0.729936|    0.014560|           5|   -1.234537|  5.0000e+01|  5.0000e+01|  5.0000e+01|
|         417|  7.4296e-01|   -4.505593|    0.729722|    0.014507|           5|   -1.217170|  5.0000e+01|  5.0000e+01|  5.0000e+01|
|         418|  7.4327e-01|   -4.497750|    0.729508|    0.014451|           5|   -1.102614|  5.0000e+01|  5.0000e+01|  5.0000e+01|
|         419|  7.4393e-01|   -4.498329|    0.729295|    0.014395|           5|   -1.123153|  5.0000e+01|  5.0000e+01|  5.0000e+01|
|         420|  7.4364e-01|   -4.501773|    0.729082|    0.014338|           5|   -1.335725|  5.0000e+01|  5.0000e+01|  5.0000e+01|
|         421|  7.4410e-01|   -4.514162|    0.728870|    0.014281|           5|   -1.349895|  5.0000e+01|  5.0000e+01|  5.0000e+01|
|         422|  7.4378e-01|   -4.519811|    0.728667|    0.014227|           5|   -1.102387|  5.0000e+01|  5.0000e+01|  5.0000e+01|
|         423|  7.4354e-01|   -4.525628|    0.728462|    0.014175|           5|   -1.135052|  5.0000e+01|  5.0000e+01|  5.0000e+01|
|         424|  7.4397e-01|   -4.546821|    0.728262|    0.014127|           5|   -1.137639|  5.0000e+01|  5.0000e+01|  5.0000e+01|
|         425|  7.4370e-01|   -4.549417|    0.728066|    0.014084|           5|   -1.232351|  5.0000e+01|  5.0000e+01|  5.0000e+01|
|         426|  7.4421e-01|   -4.576239|    0.727873|    0.014045|           5|   -1.241620|  5.0000e+01|  5.0000e+01|  5.0000e+01|
|         427|  7.4392e-01|   -4.605544|    0.727685|    0.014013|           5|   -1.181979|  5.0000e+01|  5.0000e+01|  5.0000e+01|
|         428|  7.4368e-01|   -4.625894|    0.727500|    0.013988|           5|   -1.248252|  5.0000e+01|  5.0000e+01|  5.0000e+01|
|         429|  7.4440e-01|   -4.652340|    0.727318|    0.013969|           5|   -1.096634|  5.0000e+01|  5.0000e+01|  5.0000e+01|
|         430|  7.4414e-01|   -4.665440|    0.727138|    0.013957|           5|   -1.246609|  5.0000e+01|  5.0000e+01|  5.0000e+01|
|         431|  7.4494e-01|   -4.697162|    0.726962|    0.013952|           5|   -1.195741|  5.0000e+01|  5.0000e+01|  5.0000e+01|
|         432|  7.4467e-01|   -4.719085|    0.726785|    0.013954|           5|   -1.188803|  5.0000e+01|  5.0000e+01|  5.0000e+01|
|         433|  7.4442e-01|   -4.729453|    0.726611|    0.013964|           5|   -1.132780|  5.0000e+01|  5.0000e+01|  5.0000e+01|
|         434|  7.4504e-01|   -4.752457|    0.726440|    0.013981|           5|   -0.972962|  5.0000e+01|  5.0000e+01|  5.0000e+01|
|         435|  7.4476e-01|   -4.747552|    0.726268|    0.014004|           5|   -1.178794|  5.0000e+01|  5.0000e+01|  5.0000e+01|
|         436|  7.4510e-01|   -4.760987|    0.726098|    0.014033|           5|   -1.140734|  5.0000e+01|  5.0000e+01|  5.0000e+01|
|         437|  7.4480e-01|   -4.757640|    0.725930|    0.014068|           5|   -1.089448|  5.0000e+01|  5.0000e+01|  5.0000e+01|
|         438|  7.4527e-01|   -4.744851|    0.725775|    0.014110|           5|   -1.030695|  5.0000e+01|  5.0000e+01|  5.0000e+01|
|         439|  7.4501e-01|   -4.741710|    0.725597|    0.014153|           5|   -1.067885|  5.0000e+01|  5.0000e+01|  5.0000e+01|
|         440|  7.4546e-01|   -4.732170|    0.725430|    0.014201|           5|   -1.014017|  5.0000e+01|  5.0000e+01|  5.0000e+01|
|         441|  7.4534e-01|   -4.718013|    0.725263|    0.014252|           5|   -1.103682|  5.0000e+01|  5.0000e+01|  5.0000e+01|
|         442|  7.4582e-01|   -4.716642|    0.725100|    0.014304|           5|   -1.036885|  5.0000e+01|  5.0000e+01|  5.0000e+01|
|         443|  7.4555e-01|   -4.697277|    0.724937|    0.014358|           5|   -1.012170|  5.0000e+01|  5.0000e+01|  5.0000e+01|
|         444|  7.4601e-01|   -4.699172|    0.724774|    0.014413|           5|   -0.966281|  5.0000e+01|  5.0000e+01|  5.0000e+01|
|         445|  7.4576e-01|   -4.699780|    0.724615|    0.014465|           5|   -0.795445|  5.0000e+01|  5.0000e+01|  5.0000e+01|
|         446|  7.4549e-01|   -4.695594|    0.724454|    0.014518|           5|   -1.004456|  5.0000e+01|  5.0000e+01|  5.0000e+01|
|         447|  7.4595e-01|   -4.701509|    0.724296|    0.014568|           5|   -1.086797|  5.0000e+01|  5.0000e+01|  5.0000e+01|
|         448|  7.4565e-01|   -4.709399|    0.724142|    0.014616|           5|   -1.074384|  5.0000e+01|  5.0000e+01|  5.0000e+01|
|         449|  7.4610e-01|   -4.713226|    0.723990|    0.014659|           5|   -1.156124|  5.0000e+01|  5.0000e+01|  5.0000e+01|
|         450|  7.4581e-01|   -4.731344|    0.723843|    0.014698|           5|   -1.094348|  5.0000e+01|  5.0000e+01|  5.0000e+01|
|         451|  7.4625e-01|   -4.707889|    0.723699|    0.014733|           5|   -1.207877|  5.0000e+01|  5.0000e+01|  5.0000e+01|
|         452|  7.4598e-01|   -4.740496|    0.723563|    0.014761|           5|   -1.022117|  5.0000e+01|  5.0000e+01|  5.0000e+01|
|         453|  7.4575e-01|   -4.770357|    0.723428|    0.014784|           5|   -1.093102|  5.0000e+01|  5.0000e+01|  5.0000e+01|
|         454|  7.4612e-01|   -4.794427|    0.723300|    0.014801|           5|   -1.062496|  5.0000e+01|  5.0000e+01|  5.0000e+01|
|         455|  7.4583e-01|   -4.812331|    0.723178|    0.014811|           5|   -1.047303|  5.0000e+01|  5.0000e+01|  5.0000e+01|
|         456|  7.4604e-01|   -4.829453|    0.723064|    0.014815|           5|   -1.001830|  5.0000e+01|  5.0000e+01|  5.0000e+01|
|         457|  7.4599e-01|   -4.850437|    0.722959|    0.014813|           5|   -0.813822|  5.0000e+01|  5.0000e+01|  5.0000e+01|
|         458|  7.4575e-01|   -4.860632|    0.722859|    0.014804|           5|   -0.815627|  5.0000e+01|  5.0000e+01|  5.0000e+01|
|         459|  7.4554e-01|   -4.878333|    0.722766|    0.014789|           5|   -0.935519|  5.0000e+01|  5.0000e+01|  5.0000e+01|
|         460|  7.4584e-01|   -4.894355|    0.722683|    0.014768|           5|   -0.893952|  5.0000e+01|  5.0000e+01|  5.0000e+01|
|         461|  7.4558e-01|   -4.895055|    0.722608|    0.014741|           5|   -0.844391|  5.0000e+01|  5.0000e+01|  5.0000e+01|
|         462|  7.4583e-01|   -4.907890|    0.722540|    0.014709|           5|   -0.832284|  5.0000e+01|  5.0000e+01|  5.0000e+01|
|         463|  7.4554e-01|   -4.927718|    0.722484|    0.014676|           5|   -0.647159|  5.0000e+01|  5.0000e+01|  5.0000e+01|
|         464|  7.4523e-01|   -4.929306|    0.722430|    0.014636|           5|   -0.810458|  5.0000e+01|  5.0000e+01|  5.0000e+01|
|         465|  7.4559e-01|   -4.931877|    0.722382|    0.014591|           5|   -0.993168|  5.0000e+01|  5.0000e+01|  5.0000e+01|
|         466|  7.4530e-01|   -4.911748|    0.722342|    0.014543|           5|   -0.878640|  5.0000e+01|  5.0000e+01|  5.0000e+01|
|         467|  7.4546e-01|   -4.920767|    0.722310|    0.014493|           5|   -0.891762|  5.0000e+01|  5.0000e+01|  5.0000e+01|
|         468|  7.4545e-01|   -4.905304|    0.722284|    0.014441|           5|   -0.979753|  5.0000e+01|  5.0000e+01|  5.0000e+01|
|         469|  7.4517e-01|   -4.910565|    0.722264|    0.014389|           5|   -0.926857|  5.0000e+01|  5.0000e+01|  5.0000e+01|
|         470|  7.4488e-01|   -4.933352|    0.722250|    0.014335|           5|   -0.839508|  5.0000e+01|  5.0000e+01|  5.0000e+01|
|         471|  7.4542e-01|   -4.916995|    0.722240|    0.014282|           5|   -0.808635|  5.0000e+01|  5.0000e+01|  5.0000e+01|
|         472|  7.4508e-01|   -4.915987|    0.722232|    0.014230|           5|   -0.771615|  5.0000e+01|  5.0000e+01|  5.0000e+01|
|         473|  7.4479e-01|   -4.895203|    0.722228|    0.014180|           5|   -0.851071|  5.0000e+01|  5.0000e+01|  5.0000e+01|
|         474|  7.4589e-01|   -4.896782|    0.722226|    0.014131|           5|   -0.806479|  5.0000e+01|  5.0000e+01|  5.0000e+01|
|         475|  7.4561e-01|   -4.938035|    0.722225|    0.014084|           5|   -0.921534|  5.0000e+01|  5.0000e+01|  5.0000e+01|
|         476|  7.4597e-01|   -4.959926|    0.722225|    0.014041|           5|   -0.921188|  5.0000e+01|  5.0000e+01|  5.0000e+01|
|         477|  7.4573e-01|   -4.962151|    0.722225|    0.014000|           5|   -0.891681|  5.0000e+01|  5.0000e+01|  5.0000e+01|
|         478|  7.4604e-01|   -4.958330|    0.722224|    0.013966|           5|   -0.724194|  5.0000e+01|  5.0000e+01|  5.0000e+01|
|         479|  7.4580e-01|   -5.002245|    0.722222|    0.013935|           5|   -0.697534|  5.0000e+01|  5.0000e+01|  5.0000e+01|
|         480|  7.4613e-01|   -4.949895|    0.722216|    0.013907|           5|   -0.858612|  5.0000e+01|  5.0000e+01|  5.0000e+01|
|         481|  7.4595e-01|   -5.018774|    0.722208|    0.013884|           5|   -0.802849|  5.0000e+01|  5.0000e+01|  5.0000e+01|
|         482|  7.4623e-01|   -5.016032|    0.722195|    0.013865|           5|   -0.897009|  5.0000e+01|  5.0000e+01|  5.0000e+01|
|         483|  7.4597e-01|   -5.057982|    0.722180|    0.013852|           5|   -0.735189|  5.0000e+01|  5.0000e+01|  5.0000e+01|
|         484|  7.4642e-01|   -5.057282|    0.722159|    0.013844|           5|   -0.715846|  5.0000e+01|  5.0000e+01|  5.0000e+01|
|         485|  7.4611e-01|   -5.096687|    0.722134|    0.013840|           5|   -0.843123|  5.0000e+01|  5.0000e+01|  5.0000e+01|
|         486|  7.4646e-01|   -5.120332|    0.722105|    0.013840|           5|   -0.568436|  5.0000e+01|  5.0000e+01|  5.0000e+01|
|         487|  7.4650e-01|   -5.106166|    0.722068|    0.013845|           5|   -0.595316|  5.0000e+01|  5.0000e+01|  5.0000e+01|
|         488|  7.4626e-01|   -5.111726|    0.722027|    0.013851|           5|   -0.469233|  5.0000e+01|  5.0000e+01|  5.0000e+01|
|         489|  7.4668e-01|   -5.102614|    0.721976|    0.013864|           5|   -0.694029|  5.0000e+01|  5.0000e+01|  5.0000e+01|
|         490|  7.4702e-01|   -5.131996|    0.721916|    0.013881|           5|   -0.775201|  5.0000e+01|  5.0000e+01|  5.0000e+01|
|         491|  7.4685e-01|   -5.167573|    0.721852|    0.013900|           5|   -0.650221|  5.0000e+01|  5.0000e+01|  5.0000e+01|
|         492|  7.4661e-01|   -5.168960|    0.721789|    0.013952|           5|   -0.709479|  5.0000e+01|  5.0000e+01|  5.0000e+01|
|         493|  7.4710e-01|   -5.132721|    0.721702|    0.013952|           5|   -0.732554|  5.0000e+01|  5.0000e+01|  5.0000e+01|
|         494|  7.4682e-01|   -5.169440|    0.721621|    0.013974|           5|   -0.725700|  5.0000e+01|  5.0000e+01|  5.0000e+01|
|         495|  7.4714e-01|   -5.188548|    0.721528|    0.014003|           5|   -0.747930|  5.0000e+01|  5.0000e+01|  5.0000e+01|
|         496|  7.4691e-01|   -5.186785|    0.721429|    0.014034|           5|   -0.740084|  5.0000e+01|  5.0000e+01|  5.0000e+01|
|         497|  7.4730e-01|   -5.206844|    0.721325|    0.014065|           5|   -0.776951|  5.0000e+01|  5.0000e+01|  5.0000e+01|
|         498|  7.4705e-01|   -5.193013|    0.721218|    0.014097|           5|   -0.887005|  5.0000e+01|  5.0000e+01|  5.0000e+01|
|         499|  7.4742e-01|   -5.203152|    0.721109|    0.014129|           5|   -0.804328|  5.0000e+01|  5.0000e+01|  5.0000e+01|
|         500|  7.4718e-01|   -5.221809|    0.720995|    0.014160|           5|   -0.787038|  5.0000e+01|  5.0000e+01|  5.0000e+01|
|         501|  7.4757e-01|   -5.246076|    0.720875|    0.014191|           5|   -0.852496|  5.0000e+01|  5.0000e+01|  5.0000e+01|
|         502|  7.4731e-01|   -5.245570|    0.720763|    0.014219|           5|   -0.629393|  5.0000e+01|  5.0000e+01|  5.0000e+01|
|         503|  7.4705e-01|   -5.232747|    0.720660|    0.014243|           5|   -0.415804|  5.0000e+01|  5.0000e+01|  5.0000e+01|
|         504|  7.4735e-01|   -5.208766|    0.720559|    0.014265|           5|   -0.361701|  5.0000e+01|  5.0000e+01|  5.0000e+01|
|         505|  7.4712e-01|   -5.202355|    0.720423|    0.014293|           5|   -0.687238|  5.0000e+01|  5.0000e+01|  5.0000e+01|
|         506|  7.4697e-01|   -5.230981|    0.720297|    0.014316|           5|   -0.824551|  5.0000e+01|  5.0000e+01|  5.0000e+01|
[...]
|        1665|  7.4388e-01|   -6.729489|    0.701925|    0.013586|           5|   -0.539093|  5.0000e+01|  5.0000e+01|  5.0000e+01|
|        1666|  7.4381e-01|   -6.732996|    0.701924|    0.013586|           5|   -0.319315|  5.0000e+01|  5.0000e+01|  5.0000e+01|
|        1667|  7.4394e-01|   -6.707595|    0.701922|    0.013586|           5|   -0.395614|  5.0000e+01|  5.0000e+01|  5.0000e+01|
|        1668|  7.4387e-01|   -6.714950|    0.701920|    0.013586|           5|   -0.328833|  5.0000e+01|  5.0000e+01|  5.0000e+01|
|        1669|  7.4395e-01|   -6.698576|    0.701919|    0.013586|           5|   -0.421529|  5.0000e+01|  5.0000e+01|  5.0000e+01|
|        1670|  7.4402e-01|   -6.713971|    0.701917|    0.013586|           5|   -0.428069|  5.0000e+01|  5.0000e+01|  5.0000e+01|
|        1671|  7.4395e-01|   -6.705543|    0.701916|    0.013586|           5|   -0.549822|  5.0000e+01|  5.0000e+01|  5.0000e+01|
|        1672|  7.4413e-01|   -6.744582|    0.701914|    0.013586|           5|   -0.510238|  5.0000e+01|  5.0000e+01|  5.0000e+01|
|        1673|  7.4406e-01|   -6.739432|    0.701912|    0.013586|           5|   -0.580756|  5.0000e+01|  5.0000e+01|  5.0000e+01|
|        1674|  7.4416e-01|   -6.759387|    0.701911|    0.013586|           5|   -0.398828|  5.0000e+01|  5.0000e+01|  5.0000e+01|
|        1675|  7.4416e-01|   -6.742203|    0.701910|    0.013586|           5|   -0.264783|  5.0000e+01|  5.0000e+01|  5.0000e+01|
|        1676|  7.4427e-01|   -6.715079|    0.701909|    0.013586|           5|   -0.451601|  5.0000e+01|  5.0000e+01|  5.0000e+01|
|        1677|  7.4420e-01|   -6.716094|    0.701907|    0.013586|           5|   -0.458188|  5.0000e+01|  5.0000e+01|  5.0000e+01|
|        1678|  7.4413e-01|   -6.706950|    0.701905|    0.013586|           5|   -0.482529|  5.0000e+01|  5.0000e+01|  5.0000e+01|
|        1679|  7.4425e-01|   -6.735002|    0.701904|    0.013586|           5|   -0.400917|  5.0000e+01|  5.0000e+01|  5.0000e+01|
|        1680|  7.4418e-01|   -6.711586|    0.701902|    0.013586|           5|   -0.469541|  5.0000e+01|  5.0000e+01|  5.0000e+01|
|        1681|  7.4429e-01|   -6.711750|    0.701901|    0.013586|           5|   -0.489333|  5.0000e+01|  5.0000e+01|  5.0000e+01|
|        1682|  7.4422e-01|   -6.719318|    0.701899|    0.013586|           5|   -0.414134|  5.0000e+01|  5.0000e+01|  5.0000e+01|
|        1683|  7.4415e-01|   -6.725067|    0.701898|    0.013586|           5|   -0.412211|  5.0000e+01|  5.0000e+01|  5.0000e+01|
|        1684|  7.4426e-01|   -6.742196|    0.701896|    0.013586|           5|   -0.323762|  5.0000e+01|  5.0000e+01|  5.0000e+01|
|        1685|  7.4419e-01|   -6.711726|    0.701895|    0.013586|           5|   -0.367650|  5.0000e+01|  5.0000e+01|  5.0000e+01|
|        1686|  7.4429e-01|   -6.709604|    0.701893|    0.013586|           5|   -0.374965|  5.0000e+01|  5.0000e+01|  5.0000e+01|
|        1687|  7.4422e-01|   -6.703407|    0.701892|    0.013586|           5|   -0.461398|  5.0000e+01|  5.0000e+01|  5.0000e+01|
|        1688|  7.4432e-01|   -6.733817|    0.701890|    0.013586|           5|   -0.332685|  5.0000e+01|  5.0000e+01|  5.0000e+01|
|        1689|  7.4425e-01|   -6.712353|    0.701888|    0.013585|           5|   -0.424879|  5.0000e+01|  5.0000e+01|  5.0000e+01|
|        1690|  7.4419e-01|   -6.724744|    0.701887|    0.013585|           5|   -0.297558|  5.0000e+01|  5.0000e+01|  5.0000e+01|
|        1691|  7.4429e-01|   -6.695888|    0.701885|    0.013585|           5|   -0.458935|  5.0000e+01|  5.0000e+01|  5.0000e+01|
|        1692|  7.4422e-01|   -6.727930|    0.701884|    0.013585|           5|   -0.364150|  5.0000e+01|  5.0000e+01|  5.0000e+01|
|        1693|  7.4417e-01|   -6.719162|    0.701882|    0.013585|           5|   -0.435534|  5.0000e+01|  5.0000e+01|  5.0000e+01|
|        1694|  7.4429e-01|   -6.723752|    0.701881|    0.013585|           5|   -0.499789|  5.0000e+01|  5.0000e+01|  5.0000e+01|
|        1695|  7.4422e-01|   -6.745122|    0.701879|    0.013585|           5|   -0.446703|  5.0000e+01|  5.0000e+01|  5.0000e+01|
|        1696|  7.4416e-01|   -6.742083|    0.701878|    0.013585|           5|   -0.333115|  5.0000e+01|  5.0000e+01|  5.0000e+01|
|        1697|  7.4425e-01|   -6.716238|    0.701876|    0.013585|           5|   -0.414058|  5.0000e+01|  5.0000e+01|  5.0000e+01|
|        1698|  7.4419e-01|   -6.719203|    0.701875|    0.013585|           5|   -0.498284|  5.0000e+01|  5.0000e+01|  5.0000e+01|
|        1699|  7.4425e-01|   -6.755457|    0.701873|    0.013585|           5|   -0.359222|  5.0000e+01|  5.0000e+01|  5.0000e+01|
|        1700|  7.4418e-01|   -6.742797|    0.701872|    0.013585|           5|   -0.340869|  5.0000e+01|  5.0000e+01|  5.0000e+01|
|        1701|  7.4413e-01|   -6.710867|    0.701870|    0.013585|           5|   -0.415369|  5.0000e+01|  5.0000e+01|  5.0000e+01|
|        1702|  7.4422e-01|   -6.716874|    0.701869|    0.013585|           5|   -0.397479|  5.0000e+01|  5.0000e+01|  5.0000e+01|
|        1703|  7.4415e-01|   -6.717628|    0.701867|    0.013585|           5|   -0.458437|  5.0000e+01|  5.0000e+01|  5.0000e+01|
|        1704|  7.4409e-01|   -6.742538|    0.701866|    0.013585|           5|   -0.459062|  5.0000e+01|  5.0000e+01|  5.0000e+01|
|        1705|  7.4404e-01|   -6.760672|    0.701864|    0.013585|           5|   -0.391007|  5.0000e+01|  5.0000e+01|  5.0000e+01|
|        1706|  7.4413e-01|   -6.755175|    0.701863|    0.013585|           5|   -0.322955|  5.0000e+01|  5.0000e+01|  5.0000e+01|
|        1707|  7.4407e-01|   -6.727949|    0.701861|    0.013585|           5|   -0.448914|  5.0000e+01|  5.0000e+01|  5.0000e+01|
|        1708|  7.4418e-01|   -6.750643|    0.701860|    0.013585|           5|   -0.484843|  5.0000e+01|  5.0000e+01|  5.0000e+01|
|        1709|  7.4411e-01|   -6.783687|    0.701858|    0.013585|           5|   -0.496810|  5.0000e+01|  5.0000e+01|  5.0000e+01|
|        1710|  7.4405e-01|   -6.793998|    0.701857|    0.013585|           5|   -0.527788|  5.0000e+01|  5.0000e+01|  5.0000e+01|
|        1711|  7.4421e-01|   -6.798159|    0.701855|    0.013585|           5|   -0.457717|  5.0000e+01|  5.0000e+01|  5.0000e+01|
|        1712|  7.4414e-01|   -6.786620|    0.701854|    0.013585|           5|   -0.527376|  5.0000e+01|  5.0000e+01|  5.0000e+01|
|        1713|  7.4431e-01|   -6.798193|    0.701852|    0.013585|           5|   -0.410221|  5.0000e+01|  5.0000e+01|  5.0000e+01|
|        1714|  7.4424e-01|   -6.788039|    0.701851|    0.013585|           5|   -0.333803|  5.0000e+01|  5.0000e+01|  5.0000e+01|
|        1715|  7.4418e-01|   -6.765665|    0.701850|    0.013585|           5|   -0.299887|  5.0000e+01|  5.0000e+01|  5.0000e+01|
|        1716|  7.4432e-01|   -6.743216|    0.701849|    0.013585|           5|   -0.160026|  5.0000e+01|  5.0000e+01|  5.0000e+01|
|        1717|  7.4426e-01|   -6.686925|    0.701849|    0.013585|           5|   -0.117610|  5.0000e+01|  5.0000e+01|  5.0000e+01|
|        1718|  7.4434e-01|   -6.694091|    0.701849|    0.013585|           5|   -0.114758|  5.0000e+01|  5.0000e+01|  5.0000e+01|
|        1719|  7.4428e-01|   -6.687311|    0.701849|    0.013585|           5|   -0.114878|  5.0000e+01|  5.0000e+01|  5.0000e+01|
|        1720|  7.4439e-01|   -6.689461|    0.701849|    0.013585|           5|   -0.114977|  5.0000e+01|  5.0000e+01|  5.0000e+01|
|        1721|  7.4433e-01|   -6.679487|    0.701849|    0.013585|           5|   -0.115854|  5.0000e+01|  5.0000e+01|  5.0000e+01|
|        1722|  7.4444e-01|   -6.685350|    0.701848|    0.013585|           5|   -0.116654|  5.0000e+01|  5.0000e+01|  5.0000e+01|
|        1723|  7.4437e-01|   -6.664942|    0.701849|    0.013585|           5|   -0.118468|  5.0000e+01|  5.0000e+01|  5.0000e+01|
|        1724|  7.4444e-01|   -6.686007|    0.701848|    0.013585|           5|   -0.121038|  5.0000e+01|  5.0000e+01|  5.0000e+01|
|        1725|  7.4437e-01|   -6.648539|    0.701849|    0.013585|           5|   -0.161720|  5.0000e+01|  5.0000e+01|  5.0000e+01|
|        1726|  7.4443e-01|   -6.730561|    0.701848|    0.013585|           5|   -0.220404|  5.0000e+01|  5.0000e+01|  5.0000e+01|
|        1727|  7.4442e-01|   -6.683736|    0.701848|    0.013585|           5|   -0.128431|  5.0000e+01|  5.0000e+01|  5.0000e+01|
|        1728|  7.4436e-01|   -6.727614|    0.701847|    0.013585|           5|   -0.145234|  5.0000e+01|  5.0000e+01|  5.0000e+01|
|        1729|  7.4448e-01|   -6.665261|    0.701847|    0.013585|           5|   -0.125178|  5.0000e+01|  5.0000e+01|  5.0000e+01|
|        1730|  7.4441e-01|   -6.717952|    0.701847|    0.013585|           5|   -0.132494|  5.0000e+01|  5.0000e+01|  5.0000e+01|
|        1731|  7.4448e-01|   -6.657776|    0.701847|    0.013585|           5|   -0.124445|  5.0000e+01|  5.0000e+01|  5.0000e+01|
|        1732|  7.4442e-01|   -6.710210|    0.701847|    0.013585|           5|   -0.128758|  5.0000e+01|  5.0000e+01|  5.0000e+01|
|        1733|  7.4452e-01|   -6.652422|    0.701847|    0.013585|           5|   -0.129277|  5.0000e+01|  5.0000e+01|  5.0000e+01|
|        1734|  7.4445e-01|   -6.709174|    0.701846|    0.013585|           5|   -0.158129|  5.0000e+01|  5.0000e+01|  5.0000e+01|
|        1735|  7.4460e-01|   -6.638828|    0.701846|    0.013585|           5|   -0.126052|  5.0000e+01|  5.0000e+01|  5.0000e+01|
|        1736|  7.4453e-01|   -6.675379|    0.701846|    0.013585|           5|   -0.129794|  5.0000e+01|  5.0000e+01|  5.0000e+01|
|        1737|  7.4463e-01|   -6.621935|    0.701846|    0.013585|           5|   -0.189014|  5.0000e+01|  5.0000e+01|  5.0000e+01|
|        1738|  7.4456e-01|   -6.691993|    0.701845|    0.013585|           5|   -0.322211|  5.0000e+01|  5.0000e+01|  5.0000e+01|
|        1739|  7.4449e-01|   -6.670618|    0.701844|    0.013585|           5|   -0.133474|  5.0000e+01|  5.0000e+01|  5.0000e+01|
|        1740|  7.4459e-01|   -6.642218|    0.701845|    0.013585|           5|   -0.153580|  5.0000e+01|  5.0000e+01|  5.0000e+01|
|        1741|  7.4452e-01|   -6.720451|    0.701844|    0.013585|           5|   -0.210662|  5.0000e+01|  5.0000e+01|  5.0000e+01|
|        1742|  7.4446e-01|   -6.650757|    0.701844|    0.013585|           5|   -0.131248|  5.0000e+01|  5.0000e+01|  5.0000e+01|
|        1743|  7.4455e-01|   -6.647401|    0.701844|    0.013585|           5|   -0.140040|  5.0000e+01|  5.0000e+01|  5.0000e+01|
|        1744|  7.4448e-01|   -6.723154|    0.701843|    0.013585|           5|   -0.158235|  5.0000e+01|  5.0000e+01|  5.0000e+01|
|        1745|  7.4444e-01|   -6.650256|    0.701843|    0.013585|           5|   -0.121909|  5.0000e+01|  5.0000e+01|  5.0000e+01|
|        1746|  7.4450e-01|   -6.682481|    0.701843|    0.013585|           5|   -0.119351|  5.0000e+01|  5.0000e+01|  5.0000e+01|
|        1747|  7.4442e-01|   -6.657242|    0.701843|    0.013585|           5|   -0.125175|  5.0000e+01|  5.0000e+01|  5.0000e+01|
|        1748|  7.4442e-01|   -6.691242|    0.701842|    0.013585|           5|   -0.150227|  5.0000e+01|  5.0000e+01|  5.0000e+01|
|        1749|  7.4443e-01|   -6.611412|    0.701843|    0.013585|           5|   -0.217745|  5.0000e+01|  5.0000e+01|  5.0000e+01|
|        1750|  7.4436e-01|   -6.729879|    0.701842|    0.013585|           5|   -0.289695|  5.0000e+01|  5.0000e+01|  5.0000e+01|
|        1751|  7.4442e-01|   -6.676257|    0.701842|    0.013585|           5|   -0.129316|  5.0000e+01|  5.0000e+01|  5.0000e+01|
|        1752|  7.4436e-01|   -6.660091|    0.701842|    0.013585|           5|   -0.130939|  5.0000e+01|  5.0000e+01|  5.0000e+01|
|        1753|  7.4429e-01|   -6.724365|    0.701842|    0.013585|           5|   -0.133667|  5.0000e+01|  5.0000e+01|  5.0000e+01|
|        1754|  7.4425e-01|   -6.660504|    0.701842|    0.013585|           5|   -0.128015|  5.0000e+01|  5.0000e+01|  5.0000e+01|
|        1755|  7.4435e-01|   -6.716535|    0.701841|    0.013585|           5|   -0.154005|  5.0000e+01|  5.0000e+01|  5.0000e+01|
|        1756|  7.4429e-01|   -6.636997|    0.701842|    0.013585|           5|   -0.160189|  5.0000e+01|  5.0000e+01|  5.0000e+01|
|        1757|  7.4450e-01|   -6.741428|    0.701841|    0.013585|           5|   -0.223789|  5.0000e+01|  5.0000e+01|  5.0000e+01|
|        1758|  7.4451e-01|   -6.653274|    0.701841|    0.013585|           5|   -0.132390|  5.0000e+01|  5.0000e+01|  5.0000e+01|
|        1759|  7.4445e-01|   -6.716560|    0.701840|    0.013585|           5|   -0.156354|  5.0000e+01|  5.0000e+01|  5.0000e+01|
|        1760|  7.4455e-01|   -6.640502|    0.701841|    0.013585|           5|   -0.171765|  5.0000e+01|  5.0000e+01|  5.0000e+01|
|        1761|  7.4449e-01|   -6.735348|    0.701840|    0.013585|           5|   -0.313682|  5.0000e+01|  5.0000e+01|  5.0000e+01|
|        1762|  7.4462e-01|   -6.669924|    0.701840|    0.013585|           5|   -0.124128|  5.0000e+01|  5.0000e+01|  5.0000e+01|
|        1763|  7.4456e-01|   -6.677309|    0.701840|    0.013585|           5|   -0.125892|  5.0000e+01|  5.0000e+01|  5.0000e+01|
|        1764|  7.4450e-01|   -6.734161|    0.701840|    0.013585|           5|   -0.129253|  5.0000e+01|  5.0000e+01|  5.0000e+01|
|        1765|  7.4468e-01|   -6.682576|    0.701840|    0.013585|           5|   -0.130034|  5.0000e+01|  5.0000e+01|  5.0000e+01|
|        1766|  7.4461e-01|   -6.752540|    0.701839|    0.013585|           5|   -0.148124|  5.0000e+01|  5.0000e+01|  5.0000e+01|
|        1767|  7.4472e-01|   -6.673518|    0.701840|    0.013585|           5|   -0.126151|  5.0000e+01|  5.0000e+01|  5.0000e+01|
|        1768|  7.4466e-01|   -6.733679|    0.701839|    0.013585|           5|   -0.137640|  5.0000e+01|  5.0000e+01|  5.0000e+01|
|        1769|  7.4477e-01|   -6.664665|    0.701840|    0.013585|           5|   -0.140507|  5.0000e+01|  5.0000e+01|  5.0000e+01|
|        1770|  7.4470e-01|   -6.745880|    0.701839|    0.013585|           5|   -0.200399|  5.0000e+01|  5.0000e+01|  5.0000e+01|
|        1771|  7.4481e-01|   -6.661920|    0.701839|    0.013585|           5|   -0.124351|  5.0000e+01|  5.0000e+01|  5.0000e+01|
|        1772|  7.4475e-01|   -6.709587|    0.701838|    0.013585|           5|   -0.129164|  5.0000e+01|  5.0000e+01|  5.0000e+01|
|        1773|  7.4469e-01|   -6.646537|    0.701839|    0.013585|           5|   -0.128090|  5.0000e+01|  5.0000e+01|  5.0000e+01|
|        1774|  7.4481e-01|   -6.710397|    0.701838|    0.013585|           5|   -0.137896|  5.0000e+01|  5.0000e+01|  5.0000e+01|
|        1775|  7.4477e-01|   -6.636378|    0.701839|    0.013585|           5|   -0.134349|  5.0000e+01|  5.0000e+01|  5.0000e+01|
|        1776|  7.4486e-01|   -6.713864|    0.701838|    0.013585|           5|   -0.169487|  5.0000e+01|  5.0000e+01|  5.0000e+01|
|        1777|  7.4479e-01|   -6.626710|    0.701838|    0.013585|           5|   -0.137069|  5.0000e+01|  5.0000e+01|  5.0000e+01|
|        1778|  7.4490e-01|   -6.710443|    0.701837|    0.013585|           5|   -0.183320|  5.0000e+01|  5.0000e+01|  5.0000e+01|
|        1779|  7.4483e-01|   -6.622581|    0.701838|    0.013585|           5|   -0.130085|  5.0000e+01|  5.0000e+01|  5.0000e+01|
|        1780|  7.4477e-01|   -6.686982|    0.701837|    0.013585|           5|   -0.134690|  5.0000e+01|  5.0000e+01|  5.0000e+01|
|        1781|  7.4484e-01|   -6.617456|    0.701838|    0.013585|           5|   -0.139326|  5.0000e+01|  5.0000e+01|  5.0000e+01|
|        1782|  7.4477e-01|   -6.709986|    0.701837|    0.013585|           5|   -0.186918|  5.0000e+01|  5.0000e+01|  5.0000e+01|
|        1783|  7.4480e-01|   -6.609984|    0.701837|    0.013585|           5|   -0.143959|  5.0000e+01|  5.0000e+01|  5.0000e+01|
|        1784|  7.4481e-01|   -6.710319|    0.701836|    0.013585|           5|   -0.196912|  5.0000e+01|  5.0000e+01|  5.0000e+01|
|        1785|  7.4474e-01|   -6.623930|    0.701837|    0.013585|           5|   -0.135667|  5.0000e+01|  5.0000e+01|  5.0000e+01|
|        1786|  7.4485e-01|   -6.711769|    0.701836|    0.013585|           5|   -0.182335|  5.0000e+01|  5.0000e+01|  5.0000e+01|
|        1787|  7.4478e-01|   -6.611467|    0.701837|    0.013585|           5|   -0.139498|  5.0000e+01|  5.0000e+01|  5.0000e+01|
|        1788|  7.4472e-01|   -6.711933|    0.701836|    0.013585|           5|   -0.152872|  5.0000e+01|  5.0000e+01|  5.0000e+01|
|        1789|  7.4482e-01|   -6.625408|    0.701836|    0.013585|           5|   -0.129541|  5.0000e+01|  5.0000e+01|  5.0000e+01|
|        1790|  7.4475e-01|   -6.696729|    0.701836|    0.013585|           5|   -0.137188|  5.0000e+01|  5.0000e+01|  5.0000e+01|
|        1791|  7.4469e-01|   -6.617916|    0.701836|    0.013585|           5|   -0.136385|  5.0000e+01|  5.0000e+01|  5.0000e+01|
|        1792|  7.4462e-01|   -6.707687|    0.701835|    0.013585|           5|   -0.174455|  5.0000e+01|  5.0000e+01|  5.0000e+01|
|        1793|  7.4472e-01|   -6.610701|    0.701836|    0.013585|           5|   -0.142222|  5.0000e+01|  5.0000e+01|  5.0000e+01|
|        1794|  7.4466e-01|   -6.709771|    0.701835|    0.013585|           5|   -0.208507|  5.0000e+01|  5.0000e+01|  5.0000e+01|
|        1795|  7.4476e-01|   -6.617374|    0.701835|    0.013585|           5|   -0.129458|  5.0000e+01|  5.0000e+01|  5.0000e+01|
|        1796|  7.4470e-01|   -6.676501|    0.701835|    0.013585|           5|   -0.120684|  5.0000e+01|  5.0000e+01|  5.0000e+01|
|        1797|  7.4464e-01|   -6.653626|    0.701835|    0.013585|           5|   -0.120120|  5.0000e+01|  5.0000e+01|  5.0000e+01|
|        1798|  7.4471e-01|   -6.639660|    0.701836|    0.013585|           5|   -0.129153|  5.0000e+01|  5.0000e+01|  5.0000e+01|
|        1799|  7.4465e-01|   -6.715728|    0.701835|    0.013585|           5|   -0.151756|  5.0000e+01|  5.0000e+01|  5.0000e+01|
|        1800|  7.4474e-01|   -6.630202|    0.701835|    0.013585|           5|   -0.126114|  5.0000e+01|  5.0000e+01|  5.0000e+01|
|        1801|  7.4468e-01|   -6.685691|    0.701835|    0.013585|           5|   -0.134874|  5.0000e+01|  5.0000e+01|  5.0000e+01|

----------------------------- Solver Exit -------------------------------
All convergence criteria satisfied.
+-----------------------------------------------------------------------+
|      Convergence Field     |     Value    |   Criterion  |  Converged |
+-----------------------------------------------------------------------+
|                  Cauchy[CL]|   9.86457e-07|       < 1e-06|         Yes|
+-----------------------------------------------------------------------+
-------------------------------------------------------------------------
+-----------------------------------------------------------------------+
|        File Writing Summary       |              Filename             |
+-----------------------------------------------------------------------+
|SU2 binary restart                 |restart_flow.dat                   |

Writing the forces breakdown file (forces_breakdown.dat).
|Paraview                           |flow.vtu                           |

Writing the forces breakdown file (forces_breakdown.dat).
|Paraview surface                   |surface_flow.vtu                   |

Writing the forces breakdown file (forces_breakdown.dat).
+-----------------------------------------------------------------------+

--------------------------- Finalizing Solver ---------------------------
Deleted CNumerics container.
Deleted CIntegration container.
Deleted CSolver container.
Deleted CIteration container.
Deleted CInterface container.
Deleted CGeometry container.
Deleted CFreeFormDefBox class.
Deleted CSurfaceMovement class.
Deleted CVolumetricMovement class.
Deleted CConfig container.
Deleted nInst container.
Deleted COutput class.
-------------------------------------------------------------------------

------------------------- Exit Success (SU2_CFD) ------------------------

