
-------------------------------------------------------------------------
|    ___ _   _ ___                                                      |
|   / __| | | |_  )   Release 8.0.0 "Harrier"                           |
|   \__ \ |_| |/ /                                                      |
|   |___/\___//___|   Suite (Computational Fluid Dynamics Code)         |
|                                                                       |
-------------------------------------------------------------------------
| SU2 Project Website: https://su2code.github.io                        |
|                                                                       |
| The SU2 Project is maintained by the SU2 Foundation                   |
| (http://su2foundation.org)                                            |
-------------------------------------------------------------------------
| Copyright 2012-2023, SU2 Contributors                                 |
|                                                                       |
| SU2 is free software; you can redistribute it and/or                  |
| modify it under the terms of the GNU Lesser General Public            |
| License as published by the Free Software Foundation; either          |
| version 2.1 of the License, or (at your option) any later version.    |
|                                                                       |
| SU2 is distributed in the hope that it will be useful,                |
| but WITHOUT ANY WARRANTY; without even the implied warranty of        |
| MERCHANTABILITY or FITNESS FOR A PARTICULAR PURPOSE. See the GNU      |
| Lesser General Public License for more details.                       |
|                                                                       |
| You should have received a copy of the GNU Lesser General Public      |
| License along with SU2. If not, see <http://www.gnu.org/licenses/>.   |
-------------------------------------------------------------------------

Parsing config file for zone 0

----------------- Physical Case Definition ( Zone 0 ) -------------------
Compressible RANS equations.
Turbulence model: Menter's k-omega SST-2003m with no production modification.
Hybrid RANS/LES: No Hybrid RANS/LES
Mach number: 0.729.
Angle of attack (AoA): 2 deg, and angle of sideslip (AoS): 0 deg.
Reynolds number: 6.5e+06. Reference length 1.
Reading and writing binary SU2 native restart files.
Read flow solution from: restart_flow.dat.
Dimensional simulation.
The reference area is 1 m^2.
The semi-span will be computed using the max y(3D) value.
The reference length is 1 m.
Surface(s) where the force coefficients are evaluated and 
their reference origin for moment computation: 
   - Airfoil (0.25, 0, 0).
   - Flap (0.25, 0, 0).
   - Slat (0.25, 0, 0) m.
Surface(s) plotted in the output file: Airfoil, Flap, Slat.
Input mesh file name: Mesh.su2

--------------- Space Numerical Integration ( Zone 0 ) ------------------
Roe (with entropy fix = 0.001) solver for the flow inviscid terms.
Standard Roe without low-dissipation function.
Second order integration in space, with slope limiter.
Venkatakrishnan slope-limiting method, with constant: 0.03.
The reference element size is: 1. 
Scalar upwind solver for the turbulence model.
First order integration in space.
Average of gradients with correction (viscous flow terms).
Average of gradients with correction (viscous turbulence terms).
Gradient for upwind reconstruction: inverse-distance weighted Least-Squares.
Gradient for viscous and source terms: inverse-distance weighted Least-Squares.

--------------- Time Numerical Integration  ( Zone 0 ) ------------------
Local time stepping (steady state simulation).
Euler implicit method for the flow equations.
FGMRES is used for solving the linear system.
Using a ILU(0) preconditioning.
Convergence criteria of the linear solver: 1e-06.
Max number of linear iterations: 10.
CFL adaptation. Factor down: 0.5, factor up: 1.1,
                lower limit: 1, upper limit: 1000,
                acceptable linear residual: 0.001.
Courant-Friedrichs-Lewy number:        2
Euler implicit time integration for the turbulence model.

------------------ Convergence Criteria  ( Zone 0 ) ---------------------
Maximum number of solver subiterations: 500.
Begin convergence monitoring at iteration 10.
Residual minimum value: 1e-14.
Cauchy series min. value: 1e-06.
Number of Cauchy elements: 100.
Begin windowed time average at iteration 0.

-------------------- Output Information ( Zone 0 ) ----------------------
File writing frequency: 
+------------------------------------+
|                     File| Frequency|
+------------------------------------+
|                  RESTART|       500|
|                 PARAVIEW|       500|
|         SURFACE_PARAVIEW|       500|
+------------------------------------+
Writing the convergence history file every 1 inner iterations.
Writing the screen convergence history every 1 inner iterations.
The tabular file format is CSV (.csv).
Convergence history file name: historySecond.
Forces breakdown file name: forces_breakdown.dat.
Surface file name: surface_flow.
Volume file name: flow.
Restart file name: restart_flow.dat.

------------- Config File Boundary Information ( Zone 0 ) ---------------
+-----------------------------------------------------------------------+
|                        Marker Type|                        Marker Name|
+-----------------------------------------------------------------------+
|                          Far-field|                           Farfield|
+-----------------------------------------------------------------------+
|                     Heat flux wall|                            Airfoil|
|                                   |                               Flap|
|                                   |                               Slat|
+-----------------------------------------------------------------------+

-------------------- Output Preprocessing ( Zone 0 ) --------------------

WARNING: SURFACE_PRESSURE_DROP can only be computed for at least 2 surfaces (outlet, inlet, ...)

Screen output fields: INNER_ITER, WALL_TIME, RMS_DENSITY, LIFT, DRAG, MIN_CFL, MAX_CFL, AVG_CFL
  Info: Ignoring the following history output groups:
  RESIDUALS, CFL
History output group(s): INNER_ITER, LIFT, DRAG
Convergence field(s): LIFT
Warning: No (valid) fields chosen for time convergence monitoring. Time convergence monitoring inactive.
  Info: Ignoring the following volume output fields/groups:
  RESIDUALS
Volume output fields: SOLUTION, PRIMITIVE, GRADIENTS, HESSIANS, EIGENVALUES, COORDINATES

------------------- Geometry Preprocessing ( Zone 0 ) -------------------
Two dimensional problem.
67355 grid points before partitioning.
68404 volume elements before partitioning.
4 surface markers.
535 boundary elements in index 0 (Marker = Airfoil).
158 boundary elements in index 1 (Marker = Farfield).
230 boundary elements in index 2 (Marker = Flap).
235 boundary elements in index 3 (Marker = Slat).
Executing the partitioning functions.
Building the graph adjacency structure.
Calling ParMETIS... graph partitioning complete (966 edge cuts).
Distributing ParMETIS coloring.
Rebalancing vertices.
Rebalancing volume element connectivity.
Rebalancing markers and surface elements.
69269 vertices including ghost points. 
69370 interior elements including halo cells. 
3284 triangles.
66086 quadrilaterals.
Establishing MPI communication patterns.
Setting point connectivity.
Renumbering points (Reverse Cuthill McKee Ordering).
Recomputing point connectivity.
Setting element connectivity.
Checking the numerical grid orientation.
All volume elements are correctly orientend.
All surface elements are correctly orientend.
Identifying edges and vertices.
Setting the control volume structure.
Area of the computational grid: 31408.
Searching for the closest normal neighbors to the surfaces.
Storing a mapping from global to local point index.
Compute the surface curvature.
Max K: 19597.1. Mean K: 85.8828. Standard deviation K: 973.152.
Checking for periodicity.
Computing mesh quality statistics for the dual control volumes.
+--------------------------------------------------------------+
|           Mesh Quality Metric|        Minimum|        Maximum|
+--------------------------------------------------------------+
|    Orthogonality Angle (deg.)|        55.1319|             90|
|     CV Face Area Aspect Ratio|        1.00285|        2632.04|
|           CV Sub-Volume Ratio|        1.00015|         8.5138|
+--------------------------------------------------------------+
Finding max control volume width.
Communicating number of neighbors.
Wetted area = 2.56884 m.
Area projection in the x-plane = 0.364634 m, y-plane = 1.14802 m.
Max. coordinate in the x-direction = 1.06769 m, y-direction = 0.0602548 m.
Min. coordinate in the x-direction = -0.055995 m, y-direction = -0.147724 m.
Computing wall distances.

-------------------- Solver Preprocessing ( Zone 0 ) --------------------
Viscous flow: Computing pressure using the ideal gas law
based on the free-stream temperature and a density computed
from the Reynolds number.
Force coefficients computed using free-stream values.

-- Models:
+------------------------------------------------------------------------------+
|          Viscosity Model|        Conductivity Model|              Fluid Model|
+------------------------------------------------------------------------------+
|               SUTHERLAND|          CONSTANT_PRANDTL|             STANDARD_AIR|
+------------------------------------------------------------------------------+
-- Fluid properties:
+------------------------------------------------------------------------------+
|                  Name|    Dim. value|    Ref. value|      Unit|Non-dim. value|
+------------------------------------------------------------------------------+
|        Ref. Viscosity|     1.716e-05|             1|   N.s/m^2|     1.716e-05|
|      Sutherland Temp.|        273.15|             1|         K|        273.15|
|     Sutherland Const.|         110.4|             1|         K|         110.4|
+------------------------------------------------------------------------------+
|        Prandtl (Lam.)|             -|             -|         -|          0.72|
|       Prandtl (Turb.)|             -|             -|         -|           0.9|
+------------------------------------------------------------------------------+
|          Gas Constant|       287.058|             1|  N.m/kg.K|       287.058|
|      Spec. Heat Ratio|             -|             -|         -|           1.4|
+------------------------------------------------------------------------------+
-- Initial and free-stream conditions:
+------------------------------------------------------------------------------+
|                  Name|    Dim. value|    Ref. value|      Unit|Non-dim. value|
+------------------------------------------------------------------------------+
|       Static Pressure|       38779.2|             1|        Pa|       38779.2|
|               Density|      0.468824|             1|    kg/m^3|      0.468824|
|           Temperature|        288.15|             1|         K|        288.15|
|          Total Energy|        237791|             1|   m^2/s^2|        237791|
|            Velocity-X|       247.925|             1|       m/s|       247.925|
|            Velocity-Y|       8.65775|             1|       m/s|       8.65775|
|    Velocity Magnitude|       248.077|             1|       m/s|       248.077|
+------------------------------------------------------------------------------+
|             Viscosity|    1.7893e-05|             1|   N.s/m^2|    1.7893e-05|
|          Conductivity|             -|             1|   W/m^2.K|             -|
|     Turb. Kin. Energy|       230.782|             1|   m^2/s^2|       230.782|
|     Spec. Dissipation|        604687|             1|       1/s|        604687|
+------------------------------------------------------------------------------+
|           Mach Number|             -|             -|         -|         0.729|
|       Reynolds Number|             -|             -|         -|       6.5e+06|
+------------------------------------------------------------------------------+
Initialize Jacobian structure (Navier-Stokes). MG level: 0.
Initialize Jacobian structure (SST model).

------------------- Numerics Preprocessing ( Zone 0 ) -------------------

----------------- Integration Preprocessing ( Zone 0 ) ------------------

------------------- Iteration Preprocessing ( Zone 0 ) ------------------
Euler/Navier-Stokes/RANS fluid iteration.

------------------------------ Begin Solver -----------------------------

Simulation Run using the Single-zone Driver
WARNING: SU2 was not compiled for an AVX-capable architecture. Performance could be better,
         see https://su2code.github.io/docs_v7/Build-SU2-Linux-MacOS/#compiler-optimizations
+-------------------------------------------------------------------------------------------------------+
|  Inner_Iter|   Time(sec)|    rms[Rho]|          CL|          CD|     Min CFL|     Max CFL|     Avg CFL|
+-------------------------------------------------------------------------------------------------------+
|           0|  1.1355e-01|   -2.986585|    1.892356|    0.263625|  2.2000e+00|  2.2000e+00|  2.2000e+00|
|           1|  1.1314e-01|   -2.991238|    1.892350|    0.263621|  2.4200e+00|  2.4200e+00|  2.4200e+00|
|           2|  1.1167e-01|   -2.996158|    1.892345|    0.263617|  2.6620e+00|  2.6620e+00|  2.6620e+00|
|           3|  1.1091e-01|   -3.002269|    1.892341|    0.263615|  2.9282e+00|  2.9282e+00|  2.9282e+00|
|           4|  1.1052e-01|   -3.009693|    1.892338|    0.263615|  3.2210e+00|  3.2210e+00|  3.2210e+00|
|           5|  1.1137e-01|   -3.017835|    1.892336|    0.263618|  3.5431e+00|  3.5431e+00|  3.5431e+00|
|           6|  1.3902e-01|   -3.027405|    1.892332|    0.263623|  3.8974e+00|  3.8974e+00|  3.8974e+00|
|           7|  1.5538e-01|   -3.039633|    1.892325|    0.263633|  4.2872e+00|  4.2872e+00|  4.2872e+00|
|           8|  1.5060e-01|   -3.053531|    1.892311|    0.263647|  4.7159e+00|  4.7159e+00|  4.7159e+00|
|           9|  1.4710e-01|   -3.064976|    1.892288|    0.263665|  5.1875e+00|  5.1875e+00|  5.1875e+00|
|          10|  1.4497e-01|   -3.054258|    1.892250|    0.263686|  5.7062e+00|  5.7062e+00|  5.7062e+00|
|          11|  1.4323e-01|   -3.018578|    1.892194|    0.263707|  6.2769e+00|  6.2769e+00|  6.2769e+00|
|          12|  1.5071e-01|   -3.014067|    1.892117|    0.263724|  6.9045e+00|  6.9045e+00|  6.9045e+00|
|          13|  1.6585e-01|   -3.030306|    1.892015|    0.263732|  7.5950e+00|  7.5950e+00|  7.5950e+00|
|          14|  1.6367e-01|   -3.036613|    1.891890|    0.263729|  8.3545e+00|  8.3545e+00|  8.3545e+00|
|          15|  1.6176e-01|   -3.048269|    1.891744|    0.263715|  9.1899e+00|  9.1899e+00|  9.1899e+00|
|          16|  1.6046e-01|   -3.059565|    1.891577|    0.263692|  1.0109e+01|  1.0109e+01|  1.0109e+01|
|          17|  1.5929e-01|   -3.074236|    1.891394|    0.263666|  1.1120e+01|  1.1120e+01|  1.1120e+01|
|          18|  1.5825e-01|   -3.085741|    1.891200|    0.263642|  1.2232e+01|  1.2232e+01|  1.2232e+01|
|          19|  1.6425e-01|   -3.092009|    1.891002|    0.263630|  1.3455e+01|  1.3455e+01|  1.3455e+01|
|          20|  1.7257e-01|   -3.104814|    1.890812|    0.263633|  1.4800e+01|  1.4800e+01|  1.4800e+01|
|          21|  1.7086e-01|   -3.119391|    1.890640|    0.263653|  1.6281e+01|  1.6281e+01|  1.6281e+01|
|          22|  1.6958e-01|   -3.131692|    1.890495|    0.263689|  1.7909e+01|  1.7909e+01|  1.7909e+01|
|          23|  1.6842e-01|   -3.142827|    1.890379|    0.263734|  1.9699e+01|  1.9699e+01|  1.9699e+01|
|          24|  1.6735e-01|   -3.149885|    1.890286|    0.263779|  2.1669e+01|  2.1669e+01|  2.1669e+01|
|          25|  1.6636e-01|   -3.155273|    1.890199|    0.263821|  2.3836e+01|  2.3836e+01|  2.3836e+01|
|          26|  1.6547e-01|   -3.167931|    1.890102|    0.263858|  2.6220e+01|  2.6220e+01|  2.6220e+01|
|          27|  1.7034e-01|   -3.174681|    1.889987|    0.263892|  2.8842e+01|  2.8842e+01|  2.8842e+01|
|          28|  1.7032e-01|   -3.180951|    1.889857|    0.263927|  3.1726e+01|  3.1726e+01|  3.1726e+01|
|          29|  1.6944e-01|   -3.179127|    1.889736|    0.263969|  3.4899e+01|  3.4899e+01|  3.4899e+01|
|          30|  1.6863e-01|   -3.186019|    1.889664|    0.264034|  3.8389e+01|  3.8389e+01|  3.8389e+01|
|          31|  1.6795e-01|   -3.205242|    1.889691|    0.264148|  4.2228e+01|  4.2228e+01|  4.2228e+01|
|          32|  1.6731e-01|   -3.195901|    1.889862|    0.264339|  4.6450e+01|  4.6450e+01|  4.6450e+01|
|          33|  1.7278e-01|   -3.187212|    1.890202|    0.264632|  5.1095e+01|  5.1095e+01|  5.1095e+01|
|          34|  1.7258e-01|   -3.192759|    1.890721|    0.265030|  5.1095e+01|  5.1095e+01|  5.1095e+01|
|          35|  1.7188e-01|   -3.243282|    1.891337|    0.265472|  5.1095e+01|  5.1095e+01|  5.1095e+01|
|          36|  1.7126e-01|   -3.216681|    1.892013|    0.265920|  5.6205e+01|  5.6205e+01|  5.6205e+01|
|          37|  1.7068e-01|   -3.186801|    1.892767|    0.266380|  5.6205e+01|  5.6205e+01|  5.6205e+01|
|          38|  1.7014e-01|   -3.191824|    1.893509|    0.266783|  2.8102e+01|  2.8102e+01|  2.8102e+01|
|          39|  1.7357e-01|   -3.162719|    1.893896|    0.266973|  3.0913e+01|  3.0913e+01|  3.0913e+01|
|          40|  1.7549e-01|   -3.181575|    1.894292|    0.267155|  3.4004e+01|  3.4004e+01|  3.4004e+01|
|          41|  1.7465e-01|   -3.179672|    1.894708|    0.267329|  3.7404e+01|  3.7404e+01|  3.7404e+01|
|          42|  1.7399e-01|   -3.176756|    1.895148|    0.267485|  4.1145e+01|  4.1145e+01|  4.1145e+01|
|          43|  1.7337e-01|   -3.162995|    1.895614|    0.267611|  4.5259e+01|  4.5259e+01|  4.5259e+01|
|          44|  1.7278e-01|   -3.160139|    1.896113|    0.267695|  4.9785e+01|  4.9785e+01|  4.9785e+01|
|          45|  1.7805e-01|   -3.139793|    1.896660|    0.267718|  5.4764e+01|  5.4764e+01|  5.4764e+01|
|          46|  1.8216e-01|   -3.138349|    1.897280|    0.267666|  6.0240e+01|  6.0240e+01|  6.0240e+01|
|          47|  1.8137e-01|   -3.243224|    1.898001|    0.267525|  3.0120e+01|  3.0120e+01|  3.0120e+01|
|          48|  1.8060e-01|   -3.222674|    1.898398|    0.267440|  3.3132e+01|  3.3132e+01|  3.3132e+01|
|          49|  1.7992e-01|   -3.153797|    1.898826|    0.267320|  3.6445e+01|  3.6445e+01|  3.6445e+01|
|          50|  1.7927e-01|   -3.056976|    1.899311|    0.267164|  4.0090e+01|  4.0090e+01|  4.0090e+01|
|          51|  1.7866e-01|   -3.100760|    1.899865|    0.266971|  4.4099e+01|  4.4099e+01|  4.4099e+01|
|          52|  1.7805e-01|   -3.052376|    1.900499|    0.266739|  4.8509e+01|  4.8509e+01|  4.8509e+01|
|          53|  1.7753e-01|   -3.043793|    1.901225|    0.266472|  5.3359e+01|  5.3359e+01|  5.3359e+01|
|          54|  1.8090e-01|   -3.040998|    1.902057|    0.266181|  5.8695e+01|  5.8695e+01|  5.8695e+01|
|          55|  1.8026e-01|   -3.001852|    1.903001|    0.265883|  6.4565e+01|  6.4565e+01|  6.4565e+01|
|          56|  1.7974e-01|   -2.957850|    1.904053|    0.265599|  7.1021e+01|  7.1021e+01|  7.1021e+01|
|          57|  1.7925e-01|   -2.943148|    1.905210|    0.265353|  7.8124e+01|  7.8124e+01|  7.8124e+01|
|          58|  1.7879e-01|   -2.862652|    1.906437|    0.265158|  8.5936e+01|  8.5936e+01|  8.5936e+01|
|          59|  1.7835e-01|   -2.758810|    1.907691|    0.265014|  9.4530e+01|  9.4530e+01|  9.4530e+01|
|          60|  1.8152e-01|   -2.681428|    1.908930|    0.264900|  1.0398e+02|  1.0398e+02|  1.0398e+02|
|          61|  1.8541e-01|   -2.601227|    1.910096|    0.264785|  1.1438e+02|  1.1438e+02|  1.1438e+02|
|          62|  1.8487e-01|   -2.544981|    1.911144|    0.264625|  1.2582e+02|  1.2582e+02|  1.2582e+02|
|          63|  1.8446e-01|   -2.533184|    1.912038|    0.264387|  1.2582e+02|  1.2582e+02|  1.2582e+02|
|          64|  1.8404e-01|   -2.561339|    1.912720|    0.264086|  6.2909e+01|  6.2909e+01|  6.2909e+01|
|          65|  1.8361e-01|   -2.707294|    1.913045|    0.263919|  6.9200e+01|  6.9200e+01|  6.9200e+01|
|          66|  1.8319e-01|   -2.901337|    1.913301|    0.263715|  7.6120e+01|  7.6120e+01|  7.6120e+01|
|          67|  1.8295e-01|   -2.916233|    1.913484|    0.263487|  8.3732e+01|  8.3732e+01|  8.3732e+01|
|          68|  1.8541e-01|   -2.881210|    1.913583|    0.263242|  8.3732e+01|  8.3732e+01|  8.3732e+01|
|          69|  1.8513e-01|   -2.810709|    1.913595|    0.263011|  9.2106e+01|  9.2106e+01|  9.2106e+01|
|          70|  1.8480e-01|   -2.722723|    1.913519|    0.262777|  9.2106e+01|  9.2106e+01|  9.2106e+01|
|          71|  1.8444e-01|   -2.663016|    1.913374|    0.262569|  1.0132e+02|  1.0132e+02|  1.0132e+02|
|          72|  1.8408e-01|   -2.688017|    1.913156|    0.262372|  1.0132e+02|  1.0132e+02|  1.0132e+02|
|          73|  1.8379e-01|   -2.834557|    1.912903|    0.262217|  5.0658e+01|  5.0658e+01|  5.0658e+01|
|          74|  1.8543e-01|   -2.993459|    1.912785|    0.262154|  5.5724e+01|  5.5724e+01|  5.5724e+01|
|          75|  1.8688e-01|   -3.035103|    1.912622|    0.262096|  6.1296e+01|  6.1296e+01|  6.1296e+01|
|          76|  1.8637e-01|   -3.094022|    1.912432|    0.262047|  6.7426e+01|  6.7426e+01|  6.7426e+01|
|          77|  1.8595e-01|   -3.101328|    1.912217|    0.262013|  7.4169e+01|  7.4169e+01|  7.4169e+01|
|          78|  1.8552e-01|   -3.129838|    1.911982|    0.261994|  8.1585e+01|  8.1585e+01|  8.1585e+01|
|          79|  1.8515e-01|   -3.283864|    1.911735|    0.261988|  4.0793e+01|  4.0793e+01|  4.0793e+01|
|          80|  1.8764e-01|   -3.297147|    1.911631|    0.261993|  4.4872e+01|  4.4872e+01|  4.4872e+01|
|          81|  1.8789e-01|   -3.225051|    1.911510|    0.262001|  4.9359e+01|  4.9359e+01|  4.9359e+01|
|          82|  1.8750e-01|   -3.223712|    1.911383|    0.262015|  5.4295e+01|  5.4295e+01|  5.4295e+01|
|          83|  1.8711e-01|   -3.148298|    1.911252|    0.262036|  5.9725e+01|  5.9725e+01|  5.9725e+01|
|          84|  1.8671e-01|   -3.066150|    1.911126|    0.262062|  6.5697e+01|  6.5697e+01|  6.5697e+01|
|          85|  1.8631e-01|   -3.046480|    1.911004|    0.262091|  7.2267e+01|  7.2267e+01|  7.2267e+01|
|          86|  1.8596e-01|   -3.060214|    1.910890|    0.262121|  7.9493e+01|  7.9493e+01|  7.9493e+01|
|          87|  1.8753e-01|   -3.071197|    1.910787|    0.262150|  8.7443e+01|  8.7443e+01|  8.7443e+01|
|          88|  1.8840e-01|   -3.100336|    1.910704|    0.262173|  8.7443e+01|  8.7443e+01|  8.7443e+01|
|          89|  1.8797e-01|   -3.081073|    1.910655|    0.262191|  8.7443e+01|  8.7443e+01|  8.7443e+01|
|          90|  1.8757e-01|   -3.190405|    1.910632|    0.262202|  4.3721e+01|  4.3721e+01|  4.3721e+01|
|          91|  1.8716e-01|   -3.112402|    1.910634|    0.262206|  4.8094e+01|  4.8094e+01|  4.8094e+01|
|          92|  1.8681e-01|   -3.071664|    1.910641|    0.262208|  5.2903e+01|  5.2903e+01|  5.2903e+01|
|          93|  1.8645e-01|   -3.102800|    1.910659|    0.262207|  5.8193e+01|  5.8193e+01|  5.8193e+01|
|          94|  1.8613e-01|   -3.110191|    1.910687|    0.262201|  6.4013e+01|  6.4013e+01|  6.4013e+01|
|          95|  1.8708e-01|   -3.039264|    1.910731|    0.262186|  7.0414e+01|  7.0414e+01|  7.0414e+01|
|          96|  1.8905e-01|   -3.051830|    1.910793|    0.262161|  7.7455e+01|  7.7455e+01|  7.7455e+01|
|          97|  1.8866e-01|   -2.983157|    1.910881|    0.262124|  8.5201e+01|  8.5201e+01|  8.5201e+01|
|          98|  1.8831e-01|   -3.009072|    1.911000|    0.262078|  8.5201e+01|  8.5201e+01|  8.5201e+01|
|          99|  1.8797e-01|   -2.937930|    1.911143|    0.262030|  9.3721e+01|  9.3721e+01|  9.3721e+01|
|         100|  1.8763e-01|   -2.940005|    1.911313|    0.261972|  9.3721e+01|  9.3721e+01|  9.3721e+01|
|         101|  1.8731e-01|   -2.910662|    1.911508|    0.261915|  9.3721e+01|  9.3721e+01|  9.3721e+01|
|         102|  1.8699e-01|   -2.911084|    1.911721|    0.261859|  9.3721e+01|  9.3721e+01|  9.3721e+01|
|         103|  1.8772e-01|   -2.891443|    1.911946|    0.261806|  9.3721e+01|  9.3721e+01|  9.3721e+01|
|         104|  1.8901e-01|   -2.889634|    1.912182|    0.261759|  9.3721e+01|  9.3721e+01|  9.3721e+01|
|         105|  1.8868e-01|   -2.910866|    1.912431|    0.261717|  9.3721e+01|  9.3721e+01|  9.3721e+01|
|         106|  1.8846e-01|   -2.915142|    1.912685|    0.261681|  9.3721e+01|  9.3721e+01|  9.3721e+01|
|         107|  1.8814e-01|   -2.873030|    1.912944|    0.261653|  1.0309e+02|  1.0309e+02|  1.0309e+02|
|         108|  1.8781e-01|   -2.840310|    1.913223|    0.261629|  1.0309e+02|  1.0309e+02|  1.0309e+02|
|         109|  1.8749e-01|   -2.844933|    1.913498|    0.261610|  5.1546e+01|  5.1546e+01|  5.1546e+01|
|         110|  1.8716e-01|   -2.848102|    1.913636|    0.261602|  5.6701e+01|  5.6701e+01|  5.6701e+01|
|         111|  1.8687e-01|   -2.920218|    1.913785|    0.261595|  6.2371e+01|  6.2371e+01|  6.2371e+01|
|         112|  1.8666e-01|   -2.914626|    1.913943|    0.261590|  6.8608e+01|  6.8608e+01|  6.8608e+01|
|         113|  1.8681e-01|   -2.917893|    1.914116|    0.261589|  7.5469e+01|  7.5469e+01|  7.5469e+01|
|         114|  1.8881e-01|   -2.905101|    1.914297|    0.261590|  8.3016e+01|  8.3016e+01|  8.3016e+01|
|         115|  1.8852e-01|   -2.886982|    1.914485|    0.261591|  4.1508e+01|  4.1508e+01|  4.1508e+01|
|         116|  1.8823e-01|   -2.880576|    1.914578|    0.261594|  2.0754e+01|  2.0754e+01|  2.0754e+01|
|         117|  1.8796e-01|   -2.969929|    1.914627|    0.261595|  2.2829e+01|  2.2829e+01|  2.2829e+01|
|         118|  1.8764e-01|   -2.963952|    1.914675|    0.261594|  2.5112e+01|  2.5112e+01|  2.5112e+01|
|         119|  1.8733e-01|   -3.075396|    1.914727|    0.261594|  2.7624e+01|  2.7624e+01|  2.7624e+01|
|         120|  1.8703e-01|   -3.083499|    1.914785|    0.261595|  3.0386e+01|  3.0386e+01|  3.0386e+01|
|         121|  1.8674e-01|   -3.101077|    1.914847|    0.261598|  3.3425e+01|  3.3425e+01|  3.3425e+01|
|         122|  1.8856e-01|   -3.113604|    1.914916|    0.261603|  3.6767e+01|  3.6767e+01|  3.6767e+01|
|         123|  1.8858e-01|   -3.098694|    1.914991|    0.261610|  4.0444e+01|  4.0444e+01|  4.0444e+01|
|         124|  1.8830e-01|   -3.117036|    1.915071|    0.261620|  4.4488e+01|  4.4488e+01|  4.4488e+01|
|         125|  1.8806e-01|   -3.109912|    1.915156|    0.261629|  4.8937e+01|  4.8937e+01|  4.8937e+01|
|         126|  1.8782e-01|   -3.126929|    1.915242|    0.261637|  5.3831e+01|  5.3831e+01|  5.3831e+01|
|         127|  1.8760e-01|   -3.104638|    1.915334|    0.261644|  5.9214e+01|  5.9214e+01|  5.9214e+01|
|         128|  1.8745e-01|   -3.096322|    1.915432|    0.261651|  2.9607e+01|  2.9607e+01|  2.9607e+01|
|         129|  1.8736e-01|   -3.259705|    1.915483|    0.261655|  3.2567e+01|  3.2567e+01|  3.2567e+01|
|         130|  1.8914e-01|   -3.307406|    1.915533|    0.261659|  3.5824e+01|  3.5824e+01|  3.5824e+01|
|         131|  1.8885e-01|   -3.289277|    1.915590|    0.261664|  3.9407e+01|  3.9407e+01|  3.9407e+01|
|         132|  1.8857e-01|   -3.292676|    1.915653|    0.261670|  4.3347e+01|  4.3347e+01|  4.3347e+01|
|         133|  1.8833e-01|   -3.221789|    1.915721|    0.261677|  4.7682e+01|  4.7682e+01|  4.7682e+01|
|         134|  1.8810e-01|   -3.116038|    1.915795|    0.261685|  2.3841e+01|  2.3841e+01|  2.3841e+01|
|         135|  1.8782e-01|   -3.067225|    1.915831|    0.261689|  1.1921e+01|  1.1921e+01|  1.1921e+01|
|         136|  1.8752e-01|   -3.050478|    1.915849|    0.261691|  1.3113e+01|  1.3113e+01|  1.3113e+01|
|         137|  1.8724e-01|   -3.091184|    1.915869|    0.261693|  1.4424e+01|  1.4424e+01|  1.4424e+01|
|         138|  1.8697e-01|   -3.085573|    1.915890|    0.261695|  1.5866e+01|  1.5866e+01|  1.5866e+01|
|         139|  1.8678e-01|   -3.102292|    1.915911|    0.261697|  7.9331e+00|  7.9331e+00|  7.9331e+00|
|         140|  1.8637e-01|   -3.136426|    1.915923|    0.261697|  8.7264e+00|  8.7264e+00|  8.7264e+00|
|         141|  1.8602e-01|   -3.190942|    1.915935|    0.261698|  9.5990e+00|  9.5990e+00|  9.5990e+00|
|         142|  1.8568e-01|   -3.195093|    1.915949|    0.261699|  1.0559e+01|  1.0559e+01|  1.0559e+01|
|         143|  1.8705e-01|   -3.211281|    1.915963|    0.261699|  1.1615e+01|  1.1615e+01|  1.1615e+01|
|         144|  1.8683e-01|   -3.214001|    1.915978|    0.261699|  1.2776e+01|  1.2776e+01|  1.2776e+01|
|         145|  1.8657e-01|   -3.216141|    1.915995|    0.261700|  1.4054e+01|  1.4054e+01|  1.4054e+01|
|         146|  1.8631e-01|   -3.214458|    1.916013|    0.261700|  1.5459e+01|  1.5459e+01|  1.5459e+01|
|         147|  1.8602e-01|   -3.218266|    1.916033|    0.261700|  1.7005e+01|  1.7005e+01|  1.7005e+01|
|         148|  1.8572e-01|   -3.212895|    1.916055|    0.261701|  1.8706e+01|  1.8706e+01|  1.8706e+01|
|         149|  1.8543e-01|   -3.208702|    1.916080|    0.261702|  2.0576e+01|  2.0576e+01|  2.0576e+01|
|         150|  1.8515e-01|   -3.204824|    1.916106|    0.261704|  2.2634e+01|  2.2634e+01|  2.2634e+01|
|         151|  1.8488e-01|   -3.204869|    1.916133|    0.261705|  2.4897e+01|  2.4897e+01|  2.4897e+01|
|         152|  1.8463e-01|   -3.205351|    1.916162|    0.261705|  2.7387e+01|  2.7387e+01|  2.7387e+01|
|         153|  1.8487e-01|   -3.202825|    1.916191|    0.261704|  3.0126e+01|  3.0126e+01|  3.0126e+01|
|         154|  1.8590e-01|   -3.198089|    1.916221|    0.261701|  3.3139e+01|  3.3139e+01|  3.3139e+01|
|         155|  1.8561e-01|   -3.192791|    1.916251|    0.261696|  3.6452e+01|  3.6452e+01|  3.6452e+01|
|         156|  1.8537e-01|   -3.182293|    1.916281|    0.261689|  4.0098e+01|  4.0098e+01|  4.0098e+01|
|         157|  1.8513e-01|   -3.189773|    1.916311|    0.261682|  4.4107e+01|  4.4107e+01|  4.4107e+01|
|         158|  1.8492e-01|   -3.251434|    1.916343|    0.261674|  4.8518e+01|  4.8518e+01|  4.8518e+01|
|         159|  1.8470e-01|   -3.221372|    1.916375|    0.261668|  5.3370e+01|  5.3370e+01|  5.3370e+01|
|         160|  1.8450e-01|   -3.199863|    1.916410|    0.261660|  5.8707e+01|  5.8707e+01|  5.8707e+01|
|         161|  1.8433e-01|   -3.205399|    1.916442|    0.261651|  6.4578e+01|  6.4578e+01|  6.4578e+01|
|         162|  1.8414e-01|   -3.187189|    1.916474|    0.261639|  7.1035e+01|  7.1035e+01|  7.1035e+01|
|         163|  1.8395e-01|   -3.191249|    1.916505|    0.261623|  7.8139e+01|  7.8139e+01|  7.8139e+01|
|         164|  1.8378e-01|   -3.166696|    1.916536|    0.261604|  8.5953e+01|  8.5953e+01|  8.5953e+01|
|         165|  1.8360e-01|   -3.148675|    1.916568|    0.261581|  9.4548e+01|  9.4548e+01|  9.4548e+01|
|         166|  1.8342e-01|   -3.149960|    1.916599|    0.261555|  1.0400e+02|  1.0400e+02|  1.0400e+02|
|         167|  1.8324e-01|   -3.157101|    1.916629|    0.261525|  1.1440e+02|  1.1440e+02|  1.1440e+02|
|         168|  1.8307e-01|   -3.220611|    1.916658|    0.261491|  1.1440e+02|  1.1440e+02|  1.1440e+02|
|         169|  1.8298e-01|   -3.197983|    1.916682|    0.261458|  1.1440e+02|  1.1440e+02|  1.1440e+02|
|         170|  1.8424e-01|   -3.205330|    1.916705|    0.261426|  1.1440e+02|  1.1440e+02|  1.1440e+02|
|         171|  1.8405e-01|   -3.214799|    1.916732|    0.261399|  1.1440e+02|  1.1440e+02|  1.1440e+02|
|         172|  1.8388e-01|   -3.154972|    1.916761|    0.261375|  1.1440e+02|  1.1440e+02|  1.1440e+02|
|         173|  1.8373e-01|   -3.188742|    1.916788|    0.261354|  1.1440e+02|  1.1440e+02|  1.1440e+02|
|         174|  1.8356e-01|   -3.173730|    1.916823|    0.261336|  1.2584e+02|  1.2584e+02|  1.2584e+02|
|         175|  1.8339e-01|   -3.188986|    1.916869|    0.261321|  6.2922e+01|  6.2922e+01|  6.2922e+01|
|         176|  1.8322e-01|   -3.140954|    1.916900|    0.261318|  6.9214e+01|  6.9214e+01|  6.9214e+01|
|         177|  1.8306e-01|   -3.164445|    1.916928|    0.261316|  7.6135e+01|  7.6135e+01|  7.6135e+01|
|         178|  1.8289e-01|   -3.248227|    1.916969|    0.261319|  8.3749e+01|  8.3749e+01|  8.3749e+01|
|         179|  1.8370e-01|   -3.203504|    1.917020|    0.261328|  4.1874e+01|  4.1874e+01|  4.1874e+01|
|         180|  1.8408e-01|   -3.165933|    1.917050|    0.261334|  2.0937e+01|  2.0937e+01|  2.0937e+01|
|         181|  1.8384e-01|   -3.183298|    1.917064|    0.261338|  1.0469e+01|  1.0469e+01|  1.0469e+01|
|         182|  1.8357e-01|   -3.175714|    1.917071|    0.261340|  1.1515e+01|  1.1515e+01|  1.1515e+01|
|         183|  1.8335e-01|   -3.236486|    1.917078|    0.261342|  1.2667e+01|  1.2667e+01|  1.2667e+01|
|         184|  1.8313e-01|   -3.224046|    1.917088|    0.261344|  1.3934e+01|  1.3934e+01|  1.3934e+01|
|         185|  1.8292e-01|   -3.217458|    1.917097|    0.261346|  1.5327e+01|  1.5327e+01|  1.5327e+01|
|         186|  1.8271e-01|   -3.202294|    1.917108|    0.261348|  1.6860e+01|  1.6860e+01|  1.6860e+01|
|         187|  1.8322e-01|   -3.205500|    1.917121|    0.261351|  1.8546e+01|  1.8546e+01|  1.8546e+01|
|         188|  1.8374e-01|   -3.191034|    1.917135|    0.261356|  2.0400e+01|  2.0400e+01|  2.0400e+01|
|         189|  1.8351e-01|   -3.195375|    1.917152|    0.261361|  2.2440e+01|  2.2440e+01|  2.2440e+01|
|         190|  1.8330e-01|   -3.188100|    1.917171|    0.261370|  2.4684e+01|  2.4684e+01|  2.4684e+01|
|         191|  1.8310e-01|   -3.189461|    1.917195|    0.261379|  1.2342e+01|  1.2342e+01|  1.2342e+01|
|         192|  1.8290e-01|   -3.195951|    1.917207|    0.261385|  1.3576e+01|  1.3576e+01|  1.3576e+01|
|         193|  1.8269e-01|   -3.210364|    1.917220|    0.261391|  1.4934e+01|  1.4934e+01|  1.4934e+01|
|         194|  1.8248e-01|   -3.214652|    1.917234|    0.261397|  1.6427e+01|  1.6427e+01|  1.6427e+01|
|         195|  1.8227e-01|   -3.217614|    1.917250|    0.261404|  1.8070e+01|  1.8070e+01|  1.8070e+01|
|         196|  1.8278e-01|   -3.199143|    1.917268|    0.261411|  1.9877e+01|  1.9877e+01|  1.9877e+01|
|         197|  1.8337e-01|   -3.199021|    1.917287|    0.261419|  2.1865e+01|  2.1865e+01|  2.1865e+01|
|         198|  1.8315e-01|   -3.202526|    1.917307|    0.261428|  2.4051e+01|  2.4051e+01|  2.4051e+01|
|         199|  1.8295e-01|   -3.199734|    1.917330|    0.261437|  2.6457e+01|  2.6457e+01|  2.6457e+01|
|         200|  1.8276e-01|   -3.190900|    1.917358|    0.261448|  2.9102e+01|  2.9102e+01|  2.9102e+01|
|         201|  1.8257e-01|   -3.198234|    1.917386|    0.261461|  3.2013e+01|  3.2013e+01|  3.2013e+01|
|         202|  1.8239e-01|   -3.192070|    1.917418|    0.261475|  3.5214e+01|  3.5214e+01|  3.5214e+01|
|         203|  1.8221e-01|   -3.194988|    1.917455|    0.261490|  3.8735e+01|  3.8735e+01|  3.8735e+01|
|         204|  1.8205e-01|   -3.186335|    1.917496|    0.261508|  4.2609e+01|  4.2609e+01|  4.2609e+01|
|         205|  1.8188e-01|   -3.186328|    1.917542|    0.261527|  4.6870e+01|  4.6870e+01|  4.6870e+01|
|         206|  1.8248e-01|   -3.170283|    1.917593|    0.261548|  5.1556e+01|  5.1556e+01|  5.1556e+01|
|         207|  1.8269e-01|   -3.176435|    1.917651|    0.261570|  5.6712e+01|  5.6712e+01|  5.6712e+01|
|         208|  1.8253e-01|   -3.263461|    1.917718|    0.261592|  6.2383e+01|  6.2383e+01|  6.2383e+01|
|         209|  1.8240e-01|   -3.243756|    1.917794|    0.261614|  6.8622e+01|  6.8622e+01|  6.8622e+01|
|         210|  1.8226e-01|   -3.233251|    1.917878|    0.261636|  7.5484e+01|  7.5484e+01|  7.5484e+01|
|         211|  1.8212e-01|   -3.230884|    1.917972|    0.261654|  8.3032e+01|  8.3032e+01|  8.3032e+01|
|         212|  1.8198e-01|   -3.167680|    1.918081|    0.261671|  9.1335e+01|  9.1335e+01|  9.1335e+01|
|         213|  1.8186e-01|   -3.200093|    1.918203|    0.261687|  1.0047e+02|  1.0047e+02|  1.0047e+02|
|         214|  1.8178e-01|   -3.216316|    1.918337|    0.261699|  1.1052e+02|  1.1052e+02|  1.1052e+02|
|         215|  1.8288e-01|   -3.204302|    1.918482|    0.261710|  1.2157e+02|  1.2157e+02|  1.2157e+02|
|         216|  1.8277e-01|   -3.176824|    1.918633|    0.261717|  1.2157e+02|  1.2157e+02|  1.2157e+02|
|         217|  1.8263e-01|   -3.187898|    1.918776|    0.261722|  1.2157e+02|  1.2157e+02|  1.2157e+02|
|         218|  1.8250e-01|   -3.149156|    1.918907|    0.261725|  6.0784e+01|  6.0784e+01|  6.0784e+01|
|         219|  1.8237e-01|   -3.164870|    1.918971|    0.261728|  6.6862e+01|  6.6862e+01|  6.6862e+01|
|         220|  1.8224e-01|   -3.356483|    1.919031|    0.261728|  7.3548e+01|  7.3548e+01|  7.3548e+01|
|         221|  1.8212e-01|   -3.359653|    1.919094|    0.261730|  8.0903e+01|  8.0903e+01|  8.0903e+01|
|         222|  1.8199e-01|   -3.169366|    1.919160|    0.261733|  4.0452e+01|  4.0452e+01|  4.0452e+01|
|         223|  1.8184e-01|   -3.179989|    1.919192|    0.261736|  4.4497e+01|  4.4497e+01|  4.4497e+01|
|         224|  1.8192e-01|   -3.201761|    1.919224|    0.261739|  4.8946e+01|  4.8946e+01|  4.8946e+01|
|         225|  1.8279e-01|   -3.182640|    1.919258|    0.261742|  2.4473e+01|  2.4473e+01|  2.4473e+01|
|         226|  1.8261e-01|   -3.192589|    1.919275|    0.261745|  2.6921e+01|  2.6921e+01|  2.6921e+01|
|         227|  1.8244e-01|   -3.185653|    1.919292|    0.261748|  2.9613e+01|  2.9613e+01|  2.9613e+01|
|         228|  1.8228e-01|   -3.194902|    1.919312|    0.261752|  3.2574e+01|  3.2574e+01|  3.2574e+01|
|         229|  1.8212e-01|   -3.188304|    1.919332|    0.261757|  1.6287e+01|  1.6287e+01|  1.6287e+01|
|         230|  1.8195e-01|   -3.191792|    1.919343|    0.261760|  8.1435e+00|  8.1435e+00|  8.1435e+00|
|         231|  1.8171e-01|   -3.196465|    1.919349|    0.261762|  8.9578e+00|  8.9578e+00|  8.9578e+00|
|         232|  1.8150e-01|   -3.216693|    1.919354|    0.261764|  9.8536e+00|  9.8536e+00|  9.8536e+00|
|         233|  1.8129e-01|   -3.211173|    1.919360|    0.261766|  1.0839e+01|  1.0839e+01|  1.0839e+01|
|         234|  1.8112e-01|   -3.217536|    1.919367|    0.261769|  1.1923e+01|  1.1923e+01|  1.1923e+01|
|         235|  1.8096e-01|   -3.226166|    1.919374|    0.261771|  1.3115e+01|  1.3115e+01|  1.3115e+01|
|         236|  1.8152e-01|   -3.218707|    1.919382|    0.261775|  1.4427e+01|  1.4427e+01|  1.4427e+01|
|         237|  1.8192e-01|   -3.213550|    1.919391|    0.261778|  7.2133e+00|  7.2133e+00|  7.2133e+00|
|         238|  1.8167e-01|   -3.214061|    1.919395|    0.261780|  7.9346e+00|  7.9346e+00|  7.9346e+00|
|         239|  1.8143e-01|   -3.227616|    1.919399|    0.261782|  8.7281e+00|  8.7281e+00|  8.7281e+00|
|         240|  1.8124e-01|   -3.221228|    1.919404|    0.261784|  9.6009e+00|  9.6009e+00|  9.6009e+00|
|         241|  1.8104e-01|   -3.227118|    1.919410|    0.261786|  1.0561e+01|  1.0561e+01|  1.0561e+01|
|         242|  1.8084e-01|   -3.224446|    1.919415|    0.261789|  1.1617e+01|  1.1617e+01|  1.1617e+01|
|         243|  1.8068e-01|   -3.220453|    1.919422|    0.261792|  5.8086e+00|  5.8086e+00|  5.8086e+00|
|         244|  1.8044e-01|   -3.217996|    1.919425|    0.261794|  6.3894e+00|  6.3894e+00|  6.3894e+00|
|         245|  1.8020e-01|   -3.245549|    1.919428|    0.261796|  7.0284e+00|  7.0284e+00|  7.0284e+00|
|         246|  1.7998e-01|   -3.229228|    1.919432|    0.261798|  3.5142e+00|  3.5142e+00|  3.5142e+00|
|         247|  1.7970e-01|   -3.232652|    1.919434|    0.261799|  3.8656e+00|  3.8656e+00|  3.8656e+00|
|         248|  1.7989e-01|   -3.292206|    1.919436|    0.261800|  4.2522e+00|  4.2522e+00|  4.2522e+00|
|         249|  1.8019e-01|   -3.261638|    1.919438|    0.261801|  4.6774e+00|  4.6774e+00|  4.6774e+00|
|         250|  1.7993e-01|   -3.245496|    1.919441|    0.261802|  5.1451e+00|  5.1451e+00|  5.1451e+00|
|         251|  1.7970e-01|   -3.247342|    1.919443|    0.261804|  5.6596e+00|  5.6596e+00|  5.6596e+00|
|         252|  1.7947e-01|   -3.237607|    1.919446|    0.261805|  6.2256e+00|  6.2256e+00|  6.2256e+00|
|         253|  1.7926e-01|   -3.234334|    1.919449|    0.261807|  6.8481e+00|  6.8481e+00|  6.8481e+00|
|         254|  1.7908e-01|   -3.208973|    1.919452|    0.261809|  7.5330e+00|  7.5330e+00|  7.5330e+00|
|         255|  1.7888e-01|   -3.223795|    1.919455|    0.261810|  8.2862e+00|  8.2862e+00|  8.2862e+00|
|         256|  1.7869e-01|   -3.222375|    1.919459|    0.261812|  9.1149e+00|  9.1149e+00|  9.1149e+00|
|         257|  1.7852e-01|   -3.223455|    1.919463|    0.261814|  1.0026e+01|  1.0026e+01|  1.0026e+01|
|         258|  1.7836e-01|   -3.225774|    1.919467|    0.261816|  1.1029e+01|  1.1029e+01|  1.1029e+01|
|         259|  1.7861e-01|   -3.215230|    1.919471|    0.261819|  1.2132e+01|  1.2132e+01|  1.2132e+01|
|         260|  1.7917e-01|   -3.217738|    1.919475|    0.261821|  1.3345e+01|  1.3345e+01|  1.3345e+01|
|         261|  1.7903e-01|   -3.209801|    1.919479|    0.261824|  1.4680e+01|  1.4680e+01|  1.4680e+01|
|         262|  1.7889e-01|   -3.216618|    1.919483|    0.261827|  1.6148e+01|  1.6148e+01|  1.6148e+01|
|         263|  1.7876e-01|   -3.212323|    1.919488|    0.261830|  1.7762e+01|  1.7762e+01|  1.7762e+01|
|         264|  1.7862e-01|   -3.217563|    1.919493|    0.261833|  1.9539e+01|  1.9539e+01|  1.9539e+01|
|         265|  1.7849e-01|   -3.205082|    1.919498|    0.261837|  2.1492e+01|  2.1492e+01|  2.1492e+01|
|         266|  1.7837e-01|   -3.209368|    1.919502|    0.261841|  2.3642e+01|  2.3642e+01|  2.3642e+01|
|         267|  1.7831e-01|   -3.211127|    1.919507|    0.261845|  2.6006e+01|  2.6006e+01|  2.6006e+01|
|         268|  1.7823e-01|   -3.206152|    1.919512|    0.261849|  2.8606e+01|  2.8606e+01|  2.8606e+01|
|         269|  1.7813e-01|   -3.200043|    1.919517|    0.261855|  3.1467e+01|  3.1467e+01|  3.1467e+01|
|         270|  1.7802e-01|   -3.205453|    1.919522|    0.261861|  3.4614e+01|  3.4614e+01|  3.4614e+01|
|         271|  1.7792e-01|   -3.197978|    1.919529|    0.261868|  3.8075e+01|  3.8075e+01|  3.8075e+01|
|         272|  1.7784e-01|   -3.196085|    1.919537|    0.261877|  4.1883e+01|  4.1883e+01|  4.1883e+01|
|         273|  1.7778e-01|   -3.194720|    1.919545|    0.261886|  4.6071e+01|  4.6071e+01|  4.6071e+01|
|         274|  1.7825e-01|   -3.176247|    1.919555|    0.261896|  5.0678e+01|  5.0678e+01|  5.0678e+01|
|         275|  1.7860e-01|   -3.219519|    1.919566|    0.261907|  5.5746e+01|  5.5746e+01|  5.5746e+01|
|         276|  1.7849e-01|   -3.202554|    1.919579|    0.261916|  2.7873e+01|  2.7873e+01|  2.7873e+01|
|         277|  1.7837e-01|   -3.180062|    1.919586|    0.261922|  1.3936e+01|  1.3936e+01|  1.3936e+01|
|         278|  1.7824e-01|   -3.191263|    1.919591|    0.261925|  1.5330e+01|  1.5330e+01|  1.5330e+01|
|         279|  1.7812e-01|   -3.207166|    1.919594|    0.261928|  1.6863e+01|  1.6863e+01|  1.6863e+01|
|         280|  1.7799e-01|   -3.206126|    1.919597|    0.261930|  1.8549e+01|  1.8549e+01|  1.8549e+01|
|         281|  1.7787e-01|   -3.204126|    1.919601|    0.261932|  9.2747e+00|  9.2747e+00|  9.2747e+00|
|         282|  1.7771e-01|   -3.207826|    1.919604|    0.261934|  4.6373e+00|  4.6373e+00|  4.6373e+00|
|         283|  1.7748e-01|   -3.211238|    1.919605|    0.261935|  2.3187e+00|  2.3187e+00|  2.3187e+00|
|         284|  1.7722e-01|   -3.245604|    1.919606|    0.261935|  1.1593e+00|  1.1593e+00|  1.1593e+00|
|         285|  1.7695e-01|   -3.284317|    1.919606|    0.261935|  1.2753e+00|  1.2753e+00|  1.2753e+00|
|         286|  1.7668e-01|   -3.604865|    1.919606|    0.261935|  1.4028e+00|  1.4028e+00|  1.4028e+00|
|         287|  1.7680e-01|   -3.641463|    1.919607|    0.261936|  1.5431e+00|  1.5431e+00|  1.5431e+00|
|         288|  1.7719e-01|   -3.578333|    1.919607|    0.261936|  1.6974e+00|  1.6974e+00|  1.6974e+00|
|         289|  1.7695e-01|   -3.451655|    1.919608|    0.261936|  1.8671e+00|  1.8671e+00|  1.8671e+00|
|         290|  1.7670e-01|   -3.370779|    1.919608|    0.261936|  2.0538e+00|  2.0538e+00|  2.0538e+00|
|         291|  1.7645e-01|   -3.306292|    1.919608|    0.261937|  2.2592e+00|  2.2592e+00|  2.2592e+00|
|         292|  1.7622e-01|   -3.273916|    1.919609|    0.261937|  2.4851e+00|  2.4851e+00|  2.4851e+00|
|         293|  1.7598e-01|   -3.286520|    1.919609|    0.261937|  2.7337e+00|  2.7337e+00|  2.7337e+00|
|         294|  1.7574e-01|   -3.264639|    1.919610|    0.261937|  3.0070e+00|  3.0070e+00|  3.0070e+00|
|         295|  1.7550e-01|   -3.270730|    1.919611|    0.261938|  3.3077e+00|  3.3077e+00|  3.3077e+00|
|         296|  1.7529e-01|   -3.254416|    1.919611|    0.261938|  3.6385e+00|  3.6385e+00|  3.6385e+00|
|         297|  1.7507e-01|   -3.258002|    1.919612|    0.261939|  4.0023e+00|  4.0023e+00|  4.0023e+00|
|         298|  1.7486e-01|   -3.252007|    1.919613|    0.261939|  4.4026e+00|  4.4026e+00|  4.4026e+00|
|         299|  1.7465e-01|   -3.250848|    1.919614|    0.261940|  4.8428e+00|  4.8428e+00|  4.8428e+00|
|         300|  1.7448e-01|   -3.247196|    1.919615|    0.261940|  5.3271e+00|  5.3271e+00|  5.3271e+00|
|         301|  1.7434e-01|   -3.244286|    1.919617|    0.261941|  5.8598e+00|  5.8598e+00|  5.8598e+00|
|         302|  1.7424e-01|   -3.241922|    1.919618|    0.261942|  6.4458e+00|  6.4458e+00|  6.4458e+00|
|         303|  1.7485e-01|   -3.238780|    1.919620|    0.261943|  7.0904e+00|  7.0904e+00|  7.0904e+00|
|         304|  1.7492e-01|   -3.237076|    1.919622|    0.261945|  7.7994e+00|  7.7994e+00|  7.7994e+00|
|         305|  1.7476e-01|   -3.234777|    1.919625|    0.261946|  8.5794e+00|  8.5794e+00|  8.5794e+00|
|         306|  1.7468e-01|   -3.232939|    1.919627|    0.261948|  9.4373e+00|  9.4373e+00|  9.4373e+00|
|         307|  1.7459e-01|   -3.225913|    1.919630|    0.261949|  1.0381e+01|  1.0381e+01|  1.0381e+01|
|         308|  1.7450e-01|   -3.216628|    1.919634|    0.261951|  1.1419e+01|  1.1419e+01|  1.1419e+01|
|         309|  1.7441e-01|   -3.199309|    1.919638|    0.261954|  5.7096e+00|  5.7096e+00|  5.7096e+00|
|         310|  1.7426e-01|   -3.211375|    1.919640|    0.261955|  6.2805e+00|  6.2805e+00|  6.2805e+00|
|         311|  1.7410e-01|   -3.237332|    1.919642|    0.261956|  6.9086e+00|  6.9086e+00|  6.9086e+00|
|         312|  1.7397e-01|   -3.213391|    1.919645|    0.261958|  7.5995e+00|  7.5995e+00|  7.5995e+00|
|         313|  1.7383e-01|   -3.218092|    1.919648|    0.261960|  8.3594e+00|  8.3594e+00|  8.3594e+00|
|         314|  1.7384e-01|   -3.219869|    1.919652|    0.261962|  9.1953e+00|  9.1953e+00|  9.1953e+00|
|         315|  1.7458e-01|   -3.220748|    1.919656|    0.261964|  1.0115e+01|  1.0115e+01|  1.0115e+01|
|         316|  1.7458e-01|   -3.203862|    1.919660|    0.261966|  1.1126e+01|  1.1126e+01|  1.1126e+01|
|         317|  1.7455e-01|   -3.216073|    1.919665|    0.261969|  1.2239e+01|  1.2239e+01|  1.2239e+01|
|         318|  1.7448e-01|   -3.212497|    1.919670|    0.261972|  1.3463e+01|  1.3463e+01|  1.3463e+01|
|         319|  1.7443e-01|   -3.205844|    1.919677|    0.261974|  1.4809e+01|  1.4809e+01|  1.4809e+01|
|         320|  1.7434e-01|   -3.211549|    1.919683|    0.261977|  7.4046e+00|  7.4046e+00|  7.4046e+00|
|         321|  1.7420e-01|   -3.194716|    1.919686|    0.261979|  3.7023e+00|  3.7023e+00|  3.7023e+00|
|         322|  1.7402e-01|   -3.209259|    1.919688|    0.261979|  4.0725e+00|  4.0725e+00|  4.0725e+00|
|         323|  1.7383e-01|   -3.257859|    1.919690|    0.261980|  4.4798e+00|  4.4798e+00|  4.4798e+00|
|         324|  1.7366e-01|   -3.235547|    1.919692|    0.261981|  4.9278e+00|  4.9278e+00|  4.9278e+00|
|         325|  1.7379e-01|   -3.240666|    1.919694|    0.261982|  5.4205e+00|  5.4205e+00|  5.4205e+00|
|         326|  1.7413e-01|   -3.237426|    1.919697|    0.261983|  5.9626e+00|  5.9626e+00|  5.9626e+00|
|         327|  1.7396e-01|   -3.236051|    1.919699|    0.261984|  6.5588e+00|  6.5588e+00|  6.5588e+00|
|         328|  1.7383e-01|   -3.235794|    1.919702|    0.261985|  7.2147e+00|  7.2147e+00|  7.2147e+00|
|         329|  1.7370e-01|   -3.224619|    1.919706|    0.261987|  7.9362e+00|  7.9362e+00|  7.9362e+00|
|         330|  1.7358e-01|   -3.223730|    1.919709|    0.261988|  8.7298e+00|  8.7298e+00|  8.7298e+00|
|         331|  1.7347e-01|   -3.227891|    1.919714|    0.261990|  4.3649e+00|  4.3649e+00|  4.3649e+00|
|         332|  1.7329e-01|   -3.226279|    1.919716|    0.261991|  2.1825e+00|  2.1825e+00|  2.1825e+00|
|         333|  1.7312e-01|   -3.259494|    1.919717|    0.261992|  2.4007e+00|  2.4007e+00|  2.4007e+00|
|         334|  1.7293e-01|   -3.366746|    1.919718|    0.261992|  2.6408e+00|  2.6408e+00|  2.6408e+00|
|         335|  1.7281e-01|   -3.294946|    1.919720|    0.261993|  2.9048e+00|  2.9048e+00|  2.9048e+00|
|         336|  1.7262e-01|   -3.252374|    1.919721|    0.261993|  3.1953e+00|  3.1953e+00|  3.1953e+00|
|         337|  1.7246e-01|   -3.271575|    1.919722|    0.261994|  3.5149e+00|  3.5149e+00|  3.5149e+00|
|         338|  1.7247e-01|   -3.254723|    1.919724|    0.261994|  3.8664e+00|  3.8664e+00|  3.8664e+00|
|         339|  1.7298e-01|   -3.258206|    1.919726|    0.261995|  4.2530e+00|  4.2530e+00|  4.2530e+00|
|         340|  1.7280e-01|   -3.252474|    1.919728|    0.261996|  4.6783e+00|  4.6783e+00|  4.6783e+00|
|         341|  1.7265e-01|   -3.246905|    1.919730|    0.261997|  2.3391e+00|  2.3391e+00|  2.3391e+00|
|         342|  1.7247e-01|   -3.243516|    1.919731|    0.261997|  1.1696e+00|  1.1696e+00|  1.1696e+00|
|         343|  1.7227e-01|   -3.281614|    1.919732|    0.261997|  1.2865e+00|  1.2865e+00|  1.2865e+00|
|         344|  1.7207e-01|   -3.523425|    1.919732|    0.261998|  1.4152e+00|  1.4152e+00|  1.4152e+00|
|         345|  1.7187e-01|   -3.549508|    1.919733|    0.261998|  1.5567e+00|  1.5567e+00|  1.5567e+00|
|         346|  1.7167e-01|   -3.509038|    1.919734|    0.261998|  1.7124e+00|  1.7124e+00|  1.7124e+00|
|         347|  1.7148e-01|   -3.386173|    1.919735|    0.261998|  1.8836e+00|  1.8836e+00|  1.8836e+00|
|         348|  1.7129e-01|   -3.327904|    1.919735|    0.261999|  1.0000e+00|  1.0000e+00|  1.0000e+00|
|         349|  1.7109e-01|   -3.300173|    1.919736|    0.261999|  1.0000e+00|  1.0000e+00|  1.0000e+00|
|         350|  1.7088e-01|   -3.571585|    1.919736|    0.261999|  1.1000e+00|  1.1000e+00|  1.1000e+00|
|         351|  1.7068e-01|   -3.828246|    1.919737|    0.261999|  1.2100e+00|  1.2100e+00|  1.2100e+00|
|         352|  1.7048e-01|   -3.879070|    1.919737|    0.262000|  1.3310e+00|  1.3310e+00|  1.3310e+00|
|         353|  1.7028e-01|   -3.879785|    1.919738|    0.262000|  1.4641e+00|  1.4641e+00|  1.4641e+00|
|         354|  1.7010e-01|   -3.836240|    1.919739|    0.262000|  1.6105e+00|  1.6105e+00|  1.6105e+00|
|         355|  1.6992e-01|   -3.710248|    1.919739|    0.262000|  1.7716e+00|  1.7716e+00|  1.7716e+00|
|         356|  1.6974e-01|   -3.595310|    1.919740|    0.262001|  1.9487e+00|  1.9487e+00|  1.9487e+00|
|         357|  1.6957e-01|   -3.373752|    1.919741|    0.262001|  2.1436e+00|  2.1436e+00|  2.1436e+00|
|         358|  1.6959e-01|   -3.287181|    1.919742|    0.262001|  2.3579e+00|  2.3579e+00|  2.3579e+00|
|         359|  1.6998e-01|   -3.290278|    1.919743|    0.262002|  2.5937e+00|  2.5937e+00|  2.5937e+00|
|         360|  1.6981e-01|   -3.269591|    1.919745|    0.262002|  2.8531e+00|  2.8531e+00|  2.8531e+00|
|         361|  1.6963e-01|   -3.275501|    1.919746|    0.262003|  3.1384e+00|  3.1384e+00|  3.1384e+00|
|         362|  1.6947e-01|   -3.258099|    1.919748|    0.262004|  3.4523e+00|  3.4523e+00|  3.4523e+00|
|         363|  1.6932e-01|   -3.263293|    1.919749|    0.262004|  3.7975e+00|  3.7975e+00|  3.7975e+00|
|         364|  1.6917e-01|   -3.253803|    1.919751|    0.262005|  4.1772e+00|  4.1772e+00|  4.1772e+00|
|         365|  1.6901e-01|   -3.255168|    1.919753|    0.262006|  4.5950e+00|  4.5950e+00|  4.5950e+00|
|         366|  1.6888e-01|   -3.249200|    1.919756|    0.262007|  5.0545e+00|  5.0545e+00|  5.0545e+00|
|         367|  1.6875e-01|   -3.246586|    1.919758|    0.262008|  5.5599e+00|  5.5599e+00|  5.5599e+00|
|         368|  1.6862e-01|   -3.240055|    1.919761|    0.262010|  6.1159e+00|  6.1159e+00|  6.1159e+00|
|         369|  1.6850e-01|   -3.240193|    1.919764|    0.262011|  6.7275e+00|  6.7275e+00|  6.7275e+00|
|         370|  1.6838e-01|   -3.238428|    1.919768|    0.262013|  7.4002e+00|  7.4002e+00|  7.4002e+00|
|         371|  1.6827e-01|   -3.238087|    1.919772|    0.262015|  8.1403e+00|  8.1403e+00|  8.1403e+00|
|         372|  1.6816e-01|   -3.235583|    1.919776|    0.262017|  8.9543e+00|  8.9543e+00|  8.9543e+00|
|         373|  1.6843e-01|   -3.229201|    1.919781|    0.262019|  9.8497e+00|  9.8497e+00|  9.8497e+00|
|         374|  1.6871e-01|   -3.225315|    1.919787|    0.262021|  1.0835e+01|  1.0835e+01|  1.0835e+01|
|         375|  1.6861e-01|   -3.219193|    1.919793|    0.262024|  1.1918e+01|  1.1918e+01|  1.1918e+01|
|         376|  1.6854e-01|   -3.216389|    1.919800|    0.262028|  1.3110e+01|  1.3110e+01|  1.3110e+01|
|         377|  1.6848e-01|   -3.214774|    1.919807|    0.262032|  6.5550e+00|  6.5550e+00|  6.5550e+00|
|         378|  1.6839e-01|   -3.218555|    1.919811|    0.262034|  7.2105e+00|  7.2105e+00|  7.2105e+00|
|         379|  1.6830e-01|   -3.246472|    1.919816|    0.262036|  7.9315e+00|  7.9315e+00|  7.9315e+00|
|         380|  1.6821e-01|   -3.223314|    1.919820|    0.262039|  3.9658e+00|  3.9658e+00|  3.9658e+00|
|         381|  1.6807e-01|   -3.224474|    1.919823|    0.262040|  4.3624e+00|  4.3624e+00|  4.3624e+00|
|         382|  1.6794e-01|   -3.281618|    1.919826|    0.262042|  2.1812e+00|  2.1812e+00|  2.1812e+00|
|         383|  1.6780e-01|   -3.251225|    1.919827|    0.262042|  1.0906e+00|  1.0906e+00|  1.0906e+00|
|         384|  1.6763e-01|   -3.528746|    1.919828|    0.262043|  1.1996e+00|  1.1996e+00|  1.1996e+00|
|         385|  1.6745e-01|   -3.789122|    1.919828|    0.262043|  1.3196e+00|  1.3196e+00|  1.3196e+00|
|         386|  1.6727e-01|   -3.732592|    1.919829|    0.262044|  1.4516e+00|  1.4516e+00|  1.4516e+00|
|         387|  1.6738e-01|   -3.723721|    1.919830|    0.262044|  1.0000e+00|  1.0000e+00|  1.0000e+00|
|         388|  1.6772e-01|   -3.625425|    1.919831|    0.262044|  1.0000e+00|  1.0000e+00|  1.0000e+00|
|         389|  1.6771e-01|   -3.830529|    1.919831|    0.262045|  1.1000e+00|  1.1000e+00|  1.1000e+00|
|         390|  1.6753e-01|   -3.934808|    1.919832|    0.262045|  1.2100e+00|  1.2100e+00|  1.2100e+00|
|         391|  1.6735e-01|   -4.005307|    1.919833|    0.262046|  1.3310e+00|  1.3310e+00|  1.3310e+00|
|         392|  1.6720e-01|   -3.991799|    1.919833|    0.262046|  1.4641e+00|  1.4641e+00|  1.4641e+00|
|         393|  1.6705e-01|   -3.940246|    1.919834|    0.262046|  1.6105e+00|  1.6105e+00|  1.6105e+00|
|         394|  1.6689e-01|   -3.834236|    1.919835|    0.262047|  1.7716e+00|  1.7716e+00|  1.7716e+00|
|         395|  1.6674e-01|   -3.668644|    1.919836|    0.262048|  1.9487e+00|  1.9487e+00|  1.9487e+00|
|         396|  1.6659e-01|   -3.517740|    1.919837|    0.262048|  2.1436e+00|  2.1436e+00|  2.1436e+00|
|         397|  1.6644e-01|   -3.316409|    1.919839|    0.262049|  2.3579e+00|  2.3579e+00|  2.3579e+00|
|         398|  1.6629e-01|   -3.250082|    1.919840|    0.262050|  1.1790e+00|  1.1790e+00|  1.1790e+00|
|         399|  1.6612e-01|   -3.283811|    1.919841|    0.262050|  1.2969e+00|  1.2969e+00|  1.2969e+00|
|         400|  1.6595e-01|   -3.606707|    1.919841|    0.262050|  1.4266e+00|  1.4266e+00|  1.4266e+00|
|         401|  1.6579e-01|   -3.639581|    1.919842|    0.262051|  1.5692e+00|  1.5692e+00|  1.5692e+00|
|         402|  1.6563e-01|   -3.563828|    1.919843|    0.262051|  1.7261e+00|  1.7261e+00|  1.7261e+00|
|         403|  1.6581e-01|   -3.433333|    1.919844|    0.262052|  1.8987e+00|  1.8987e+00|  1.8987e+00|
|         404|  1.6609e-01|   -3.353055|    1.919845|    0.262053|  2.0886e+00|  2.0886e+00|  2.0886e+00|
|         405|  1.6593e-01|   -3.299649|    1.919847|    0.262053|  2.2975e+00|  2.2975e+00|  2.2975e+00|
|         406|  1.6578e-01|   -3.270495|    1.919848|    0.262054|  2.5272e+00|  2.5272e+00|  2.5272e+00|
|         407|  1.6563e-01|   -3.281798|    1.919850|    0.262055|  2.7800e+00|  2.7800e+00|  2.7800e+00|
|         408|  1.6548e-01|   -3.261122|    1.919851|    0.262056|  3.0580e+00|  3.0580e+00|  3.0580e+00|
|         409|  1.6536e-01|   -3.267585|    1.919853|    0.262057|  3.3637e+00|  3.3637e+00|  3.3637e+00|
|         410|  1.6528e-01|   -3.254001|    1.919855|    0.262058|  3.7001e+00|  3.7001e+00|  3.7001e+00|
|         411|  1.6515e-01|   -3.257278|    1.919857|    0.262059|  4.0701e+00|  4.0701e+00|  4.0701e+00|
|         412|  1.6502e-01|   -3.250953|    1.919860|    0.262060|  4.4772e+00|  4.4772e+00|  4.4772e+00|
|         413|  1.6490e-01|   -3.250838|    1.919862|    0.262062|  4.9249e+00|  4.9249e+00|  4.9249e+00|
|         414|  1.6479e-01|   -3.246211|    1.919865|    0.262063|  5.4174e+00|  5.4174e+00|  5.4174e+00|
|         415|  1.6469e-01|   -3.244925|    1.919868|    0.262065|  5.9591e+00|  5.9591e+00|  5.9591e+00|
|         416|  1.6458e-01|   -3.240802|    1.919871|    0.262067|  6.5550e+00|  6.5550e+00|  6.5550e+00|
|         417|  1.6482e-01|   -3.236007|    1.919875|    0.262068|  7.2105e+00|  7.2105e+00|  7.2105e+00|
|         418|  1.6510e-01|   -3.235807|    1.919879|    0.262070|  7.9315e+00|  7.9315e+00|  7.9315e+00|
|         419|  1.6500e-01|   -3.235487|    1.919883|    0.262073|  8.7247e+00|  8.7247e+00|  8.7247e+00|
|         420|  1.6492e-01|   -3.234106|    1.919888|    0.262075|  9.5972e+00|  9.5972e+00|  9.5972e+00|
|         421|  1.6485e-01|   -3.229641|    1.919893|    0.262078|  1.0557e+01|  1.0557e+01|  1.0557e+01|
|         422|  1.6478e-01|   -3.228164|    1.919899|    0.262082|  1.1613e+01|  1.1613e+01|  1.1613e+01|
|         423|  1.6472e-01|   -3.212912|    1.919906|    0.262085|  5.8063e+00|  5.8063e+00|  5.8063e+00|
|         424|  1.6462e-01|   -3.219914|    1.919910|    0.262087|  2.9031e+00|  2.9031e+00|  2.9031e+00|
|         425|  1.6448e-01|   -3.245580|    1.919911|    0.262088|  1.4516e+00|  1.4516e+00|  1.4516e+00|
|         426|  1.6433e-01|   -3.308097|    1.919912|    0.262089|  1.5967e+00|  1.5967e+00|  1.5967e+00|
|         427|  1.6418e-01|   -3.402635|    1.919913|    0.262090|  1.7564e+00|  1.7564e+00|  1.7564e+00|
|         428|  1.6404e-01|   -3.366679|    1.919914|    0.262090|  1.9320e+00|  1.9320e+00|  1.9320e+00|
|         429|  1.6417e-01|   -3.303100|    1.919915|    0.262091|  2.1252e+00|  2.1252e+00|  2.1252e+00|
|         430|  1.6434e-01|   -3.278346|    1.919917|    0.262092|  2.3378e+00|  2.3378e+00|  2.3378e+00|
|         431|  1.6419e-01|   -3.287943|    1.919918|    0.262092|  2.5715e+00|  2.5715e+00|  2.5715e+00|
|         432|  1.6406e-01|   -3.268968|    1.919920|    0.262093|  2.8287e+00|  2.8287e+00|  2.8287e+00|
|         433|  1.6392e-01|   -3.275034|    1.919921|    0.262094|  3.1116e+00|  3.1116e+00|  3.1116e+00|
|         434|  1.6380e-01|   -3.259254|    1.919923|    0.262095|  1.5558e+00|  1.5558e+00|  1.5558e+00|
|         435|  1.6366e-01|   -3.263637|    1.919924|    0.262096|  1.0000e+00|  1.0000e+00|  1.0000e+00|
|         436|  1.6351e-01|   -3.640267|    1.919924|    0.262096|  1.1000e+00|  1.1000e+00|  1.1000e+00|
|         437|  1.6337e-01|   -3.944312|    1.919925|    0.262097|  1.2100e+00|  1.2100e+00|  1.2100e+00|
|         438|  1.6322e-01|   -3.927884|    1.919926|    0.262097|  1.3310e+00|  1.3310e+00|  1.3310e+00|
|         439|  1.6309e-01|   -3.973008|    1.919927|    0.262097|  1.4641e+00|  1.4641e+00|  1.4641e+00|
|         440|  1.6296e-01|   -3.900257|    1.919927|    0.262098|  1.6105e+00|  1.6105e+00|  1.6105e+00|
|         441|  1.6283e-01|   -3.784749|    1.919928|    0.262099|  1.7716e+00|  1.7716e+00|  1.7716e+00|
|         442|  1.6270e-01|   -3.655135|    1.919929|    0.262099|  1.9487e+00|  1.9487e+00|  1.9487e+00|
|         443|  1.6257e-01|   -3.435847|    1.919930|    0.262100|  2.1436e+00|  2.1436e+00|  2.1436e+00|
|         444|  1.6246e-01|   -3.323167|    1.919932|    0.262101|  1.0718e+00|  1.0718e+00|  1.0718e+00|
|         445|  1.6276e-01|   -3.290497|    1.919932|    0.262101|  1.0000e+00|  1.0000e+00|  1.0000e+00|
|         446|  1.6282e-01|   -3.618304|    1.919933|    0.262101|  1.0000e+00|  1.0000e+00|  1.0000e+00|
|         447|  1.6267e-01|   -3.879695|    1.919933|    0.262102|  1.1000e+00|  1.1000e+00|  1.1000e+00|
|         448|  1.6253e-01|   -3.957097|    1.919934|    0.262102|  1.2100e+00|  1.2100e+00|  1.2100e+00|
|         449|  1.6239e-01|   -4.049920|    1.919935|    0.262102|  1.3310e+00|  1.3310e+00|  1.3310e+00|
|         450|  1.6227e-01|   -4.033605|    1.919935|    0.262103|  1.4641e+00|  1.4641e+00|  1.4641e+00|
|         451|  1.6214e-01|   -3.974488|    1.919936|    0.262103|  1.6105e+00|  1.6105e+00|  1.6105e+00|
|         452|  1.6202e-01|   -3.875370|    1.919937|    0.262104|  1.0000e+00|  1.0000e+00|  1.0000e+00|
|         453|  1.6188e-01|   -3.696033|    1.919938|    0.262104|  1.0000e+00|  1.0000e+00|  1.0000e+00|
|         454|  1.6175e-01|   -3.792578|    1.919938|    0.262104|  1.0000e+00|  1.0000e+00|  1.0000e+00|
|         455|  1.6161e-01|   -3.971887|    1.919939|    0.262105|  1.1000e+00|  1.1000e+00|  1.1000e+00|
|         456|  1.6147e-01|   -4.071658|    1.919939|    0.262105|  1.2100e+00|  1.2100e+00|  1.2100e+00|
|         457|  1.6135e-01|   -4.134531|    1.919940|    0.262105|  1.3310e+00|  1.3310e+00|  1.3310e+00|
|         458|  1.6124e-01|   -4.129229|    1.919941|    0.262106|  1.4641e+00|  1.4641e+00|  1.4641e+00|
|         459|  1.6112e-01|   -4.062759|    1.919942|    0.262106|  1.6105e+00|  1.6105e+00|  1.6105e+00|
|         460|  1.6100e-01|   -3.960787|    1.919943|    0.262107|  1.7716e+00|  1.7716e+00|  1.7716e+00|
|         461|  1.6088e-01|   -3.786525|    1.919944|    0.262107|  1.9487e+00|  1.9487e+00|  1.9487e+00|
|         462|  1.6076e-01|   -3.621880|    1.919945|    0.262108|  2.1436e+00|  2.1436e+00|  2.1436e+00|
|         463|  1.6064e-01|   -3.349338|    1.919946|    0.262109|  2.3579e+00|  2.3579e+00|  2.3579e+00|
|         464|  1.6052e-01|   -3.252991|    1.919947|    0.262109|  1.1790e+00|  1.1790e+00|  1.1790e+00|
|         465|  1.6039e-01|   -3.281424|    1.919948|    0.262110|  1.0000e+00|  1.0000e+00|  1.0000e+00|
|         466|  1.6052e-01|   -3.621698|    1.919948|    0.262110|  1.1000e+00|  1.1000e+00|  1.1000e+00|
|         467|  1.6077e-01|   -3.891360|    1.919949|    0.262110|  1.2100e+00|  1.2100e+00|  1.2100e+00|

----------------------------- Solver Exit -------------------------------
All convergence criteria satisfied.
+-----------------------------------------------------------------------+
|      Convergence Field     |     Value    |   Criterion  |  Converged |
+-----------------------------------------------------------------------+
|                  Cauchy[CL]|   9.92507e-07|       < 1e-06|         Yes|
+-----------------------------------------------------------------------+
-------------------------------------------------------------------------
+-----------------------------------------------------------------------+
|        File Writing Summary       |              Filename             |
+-----------------------------------------------------------------------+
|SU2 binary restart                 |restart_flow.dat                   |

Writing the forces breakdown file (forces_breakdown.dat).
|Paraview                           |flow.vtu                           |

Writing the forces breakdown file (forces_breakdown.dat).
|Paraview surface                   |surface_flow.vtu                   |

Writing the forces breakdown file (forces_breakdown.dat).
+-----------------------------------------------------------------------+

--------------------------- Finalizing Solver ---------------------------
Deleted CNumerics container.
Deleted CIntegration container.
Deleted CSolver container.
Deleted CIteration container.
Deleted CInterface container.
Deleted CGeometry container.
Deleted CFreeFormDefBox class.
Deleted CSurfaceMovement class.
Deleted CVolumetricMovement class.
Deleted CConfig container.
Deleted nInst container.
Deleted COutput class.
-------------------------------------------------------------------------

------------------------- Exit Success (SU2_CFD) ------------------------

