
-------------------------------------------------------------------------
|    ___ _   _ ___                                                      |
|   / __| | | |_  )   Release 8.0.0 "Harrier"                           |
|   \__ \ |_| |/ /                                                      |
|   |___/\___//___|   Suite (Computational Fluid Dynamics Code)         |
|                                                                       |
-------------------------------------------------------------------------
| SU2 Project Website: https://su2code.github.io                        |
|                                                                       |
| The SU2 Project is maintained by the SU2 Foundation                   |
| (http://su2foundation.org)                                            |
-------------------------------------------------------------------------
| Copyright 2012-2023, SU2 Contributors                                 |
|                                                                       |
| SU2 is free software; you can redistribute it and/or                  |
| modify it under the terms of the GNU Lesser General Public            |
| License as published by the Free Software Foundation; either          |
| version 2.1 of the License, or (at your option) any later version.    |
|                                                                       |
| SU2 is distributed in the hope that it will be useful,                |
| but WITHOUT ANY WARRANTY; without even the implied warranty of        |
| MERCHANTABILITY or FITNESS FOR A PARTICULAR PURPOSE. See the GNU      |
| Lesser General Public License for more details.                       |
|                                                                       |
| You should have received a copy of the GNU Lesser General Public      |
| License along with SU2. If not, see <http://www.gnu.org/licenses/>.   |
-------------------------------------------------------------------------

Parsing config file for zone 0

----------------- Physical Case Definition ( Zone 0 ) -------------------
Compressible RANS equations.
Turbulence model: Spalart-Allmaras-noft2
Hybrid RANS/LES: No Hybrid RANS/LES
Mach number: 0.734.
Angle of attack (AoA): 2.31 deg, and angle of sideslip (AoS): 0 deg.
Reynolds number: 6.5e+06. Reference length 1.
Fixed CL mode, target value: 0.824.
Reading and writing binary SU2 native restart files.
Read flow solution from: solution_flow.dat.
Dimensional simulation.
The reference area is 1 m^2.
The semi-span will be computed using the max y(3D) value.
The reference length is 1 m.
Reference origin for moment evaluation is (0.25, 0, 0).
Surface(s) where the force coefficients are evaluated: AIRFOIL.

Surface(s) plotted in the output file: AIRFOIL.
Surface(s) affected by the design variables: AIRFOIL.
Input mesh file name: mesh_RAE2822_turb_deform.su2

--------------- Space Numerical Integration ( Zone 0 ) ------------------
Jameson-Schmidt-Turkel scheme (2nd order in space) for the flow inviscid terms.
JST viscous coefficients (2nd & 4th): 0.5, 0.02.
The method includes a grid stretching correction (p = 0.3).
Scalar upwind solver for the turbulence model.
First order integration in space.
Average of gradients with correction (viscous flow terms).
Average of gradients with correction (viscous turbulence terms).
Gradient for viscous and source terms: inverse-distance weighted Least-Squares.

--------------- Time Numerical Integration  ( Zone 0 ) ------------------
Local time stepping (steady state simulation).
Euler implicit method for the flow equations.
FGMRES is used for solving the linear system.
Using a ILU(0) preconditioning.
Convergence criteria of the linear solver: 1e-06.
Max number of linear iterations: 10.
No CFL adaptation.
Courant-Friedrichs-Lewy number:       10
Euler implicit time integration for the turbulence model.

------------------ Convergence Criteria  ( Zone 0 ) ---------------------
Maximum number of solver subiterations: 5500.
Begin convergence monitoring at iteration 10.
Residual minimum value: 1e-12.
Cauchy series min. value: 1e-06.
Number of Cauchy elements: 100.
Begin windowed time average at iteration 0.

-------------------- Output Information ( Zone 0 ) ----------------------
File writing frequency: 
+------------------------------------+
|                     File| Frequency|
+------------------------------------+
|                  RESTART|     10000|
|                 PARAVIEW|     10000|
|         SURFACE_PARAVIEW|     10000|
|              SURFACE_CSV|     10000|
+------------------------------------+
Writing the convergence history file every 1 inner iterations.
Writing the screen convergence history every 1 inner iterations.
The tabular file format is CSV (.csv).
Convergence history file name: history_direct.
Forces breakdown file name: forces_breakdown.dat.
Surface file name: surface_flow.
Volume file name: flow.
Restart file name: restart_flow.dat.

------------- Config File Boundary Information ( Zone 0 ) ---------------
+-----------------------------------------------------------------------+
|                        Marker Type|                        Marker Name|
+-----------------------------------------------------------------------+
|                          Far-field|                           FARFIELD|
+-----------------------------------------------------------------------+
|                     Heat flux wall|                            AIRFOIL|
+-----------------------------------------------------------------------+

-------------------- Output Preprocessing ( Zone 0 ) --------------------

WARNING: SURFACE_PRESSURE_DROP can only be computed for at least 2 surfaces (outlet, inlet, ...)

Screen output fields: INNER_ITER, RMS_DENSITY, RMS_NU_TILDE, LIFT, DRAG
History output group(s): ITER, RMS_RES, AERO_COEFF
Convergence field(s): RMS_DENSITY
Warning: No (valid) fields chosen for time convergence monitoring. Time convergence monitoring inactive.
Volume output fields: COORDINATES, SOLUTION, PRIMITIVE

------------------- Geometry Preprocessing ( Zone 0 ) -------------------
Two dimensional problem.
13937 grid points before partitioning.
22842 volume elements before partitioning.
2 surface markers.
192 boundary elements in index 0 (Marker = AIRFOIL).
40 boundary elements in index 1 (Marker = FARFIELD).
Executing the partitioning functions.
Building the graph adjacency structure.
Calling ParMETIS... graph partitioning complete (831 edge cuts).
Distributing ParMETIS coloring.
Rebalancing vertices.
Rebalancing volume element connectivity.
Rebalancing markers and surface elements.
14875 vertices including ghost points. 
23674 interior elements including halo cells. 
18780 triangles.
4894 quadrilaterals.
Establishing MPI communication patterns.
Setting point connectivity.
Renumbering points (Reverse Cuthill McKee Ordering).
Recomputing point connectivity.
Setting element connectivity.
Checking the numerical grid orientation.
All volume elements are correctly orientend.
All surface elements are correctly orientend.
Identifying edges and vertices.
Setting the control volume structure.
Area of the computational grid: 32209.9.
Searching for the closest normal neighbors to the surfaces.
Storing a mapping from global to local point index.
Compute the surface curvature.
Max K: 187.672. Mean K: 8.0658. Standard deviation K: 25.342.
Checking for periodicity.
Computing mesh quality statistics for the dual control volumes.
+--------------------------------------------------------------+
|           Mesh Quality Metric|        Minimum|        Maximum|
+--------------------------------------------------------------+
|    Orthogonality Angle (deg.)|        74.8895|        89.9999|
|     CV Face Area Aspect Ratio|        1.00519|        3358.34|
|           CV Sub-Volume Ratio|        1.00047|        1217.84|
+--------------------------------------------------------------+
Finding max control volume width.
Communicating number of neighbors.
Wetted area = 2.02148 m.
Area projection in the x-plane = 0.126123 m, y-plane = 0.995873 m.
Max. coordinate in the x-direction = 1 m, y-direction = 0.0620083 m.
Min. coordinate in the x-direction = 0 m, y-direction = -0.0607467 m.
Computing wall distances.

-------------------- Solver Preprocessing ( Zone 0 ) --------------------
WARNING: AoA in the solution file (2.7809 deg.) +
         AoA offset in mesh file (0 deg.) = 2.7809 deg.
WARNING: SU2 will use the dCD/dCL provided in the direct solution file: 0.0184881.
WARNING: SU2 will use the dCMz/dCL provided in the direct solution file: 0.0108144.
Viscous flow: Computing pressure using the ideal gas law
based on the free-stream temperature and a density computed
from the Reynolds number.
Force coefficients computed using free-stream values.

-- Models:
+------------------------------------------------------------------------------+
|          Viscosity Model|        Conductivity Model|              Fluid Model|
+------------------------------------------------------------------------------+
|               SUTHERLAND|          CONSTANT_PRANDTL|             STANDARD_AIR|
+------------------------------------------------------------------------------+
-- Fluid properties:
+------------------------------------------------------------------------------+
|                  Name|    Dim. value|    Ref. value|      Unit|Non-dim. value|
+------------------------------------------------------------------------------+
|        Ref. Viscosity|     1.716e-05|             1|   N.s/m^2|     1.716e-05|
|      Sutherland Temp.|        273.15|             1|         K|        273.15|
|     Sutherland Const.|         110.4|             1|         K|         110.4|
+------------------------------------------------------------------------------+
|        Prandtl (Lam.)|             -|             -|         -|          0.71|
|       Prandtl (Turb.)|             -|             -|         -|           0.9|
+------------------------------------------------------------------------------+
|          Gas Constant|       287.058|             1|  N.m/kg.K|       287.058|
|      Spec. Heat Ratio|             -|             -|         -|           1.4|
+------------------------------------------------------------------------------+
-- Initial and free-stream conditions:
+------------------------------------------------------------------------------+
|                  Name|    Dim. value|    Ref. value|      Unit|Non-dim. value|
+------------------------------------------------------------------------------+
|       Static Pressure|         38515|             1|        Pa|         38515|
|               Density|      0.465631|             1|    kg/m^3|      0.465631|
|           Temperature|        288.15|             1|         K|        288.15|
|          Total Energy|        237984|             1|   m^2/s^2|        237984|
|            Velocity-X|       249.484|             1|       m/s|       249.484|
|            Velocity-Y|       12.1184|             1|       m/s|       12.1184|
|    Velocity Magnitude|       249.778|             1|       m/s|       249.778|
+------------------------------------------------------------------------------+
|             Viscosity|    1.7893e-05|             1|   N.s/m^2|    1.7893e-05|
|          Conductivity|             -|             1|   W/m^2.K|             -|
|     Turb. Kin. Energy|       233.959|             1|   m^2/s^2|       233.959|
|     Spec. Dissipation|        608834|             1|       1/s|        608834|
+------------------------------------------------------------------------------+
|           Mach Number|             -|             -|         -|         0.734|
|       Reynolds Number|             -|             -|         -|       6.5e+06|
+------------------------------------------------------------------------------+
Initialize Jacobian structure (Navier-Stokes). MG level: 0.
Initialize Jacobian structure (SA model).

------------------- Numerics Preprocessing ( Zone 0 ) -------------------

----------------- Integration Preprocessing ( Zone 0 ) ------------------

------------------- Iteration Preprocessing ( Zone 0 ) ------------------
Euler/Navier-Stokes/RANS fluid iteration.

------------------------------ Begin Solver -----------------------------

Simulation Run using the Single-zone Driver
WARNING: SU2 was not compiled for an AVX-capable architecture. Performance could be better,
         see https://su2code.github.io/docs_v7/Build-SU2-Linux-MacOS/#compiler-optimizations
+----------------------------------------------------------------+
|  Inner_Iter|    rms[Rho]|     rms[nu]|          CL|          CD|
+----------------------------------------------------------------+
|           0|   -5.797168|   -7.199034|    0.824012|    0.012004|
|           1|   -5.852304|   -7.302890|    0.824017|    0.012006|
|           2|   -5.910465|   -7.433287|    0.824019|    0.012007|
|           3|   -5.955188|   -7.589734|    0.824018|    0.012007|
|           4|   -5.986746|   -7.758215|    0.824017|    0.012007|
|           5|   -6.006847|   -7.880490|    0.824015|    0.012007|
|           6|   -6.017054|   -7.895968|    0.824014|    0.012007|
|           7|   -6.019293|   -7.855913|    0.824014|    0.012007|
|           8|   -6.015543|   -7.814984|    0.824015|    0.012007|
|           9|   -6.007511|   -7.781471|    0.824016|    0.012007|
|          10|   -5.996644|   -7.750871|    0.824017|    0.012008|
|          11|   -5.984291|   -7.721677|    0.824019|    0.012008|
|          12|   -5.971696|   -7.696928|    0.824020|    0.012009|
|          13|   -5.959813|   -7.680914|    0.824022|    0.012010|
|          14|   -5.949169|   -7.676660|    0.824023|    0.012011|
|          15|   -5.939882|   -7.685265|    0.824024|    0.012012|
|          16|   -5.931839|   -7.705917|    0.824025|    0.012013|
|          17|   -5.924900|   -7.735635|    0.824025|    0.012014|
|          18|   -5.919030|   -7.768624|    0.824025|    0.012015|
|          19|   -5.914323|   -7.796245|    0.824025|    0.012016|
|          20|   -5.910919|   -7.809782|    0.824024|    0.012017|
|          21|   -5.908901|   -7.805965|    0.824023|    0.012018|
|          22|   -5.908230|   -7.789282|    0.824021|    0.012019|
|          23|   -5.908727|   -7.767715|    0.824019|    0.012019|
|          24|   -5.910113|   -7.747690|    0.824018|    0.012020|
|          25|   -5.912068|   -7.732501|    0.824015|    0.012020|
|          26|   -5.914287|   -7.722938|    0.824013|    0.012021|
|          27|   -5.916512|   -7.718271|    0.824011|    0.012021|
|          28|   -5.918544|   -7.717026|    0.824009|    0.012021|
|          29|   -5.920246|   -7.717553|    0.824007|    0.012021|
|          30|   -5.921524|   -7.718476|    0.824005|    0.012021|
|          31|   -5.922315|   -7.718990|    0.824004|    0.012021|
|          32|   -5.922571|   -7.718942|    0.824002|    0.012021|
|          33|   -5.922260|   -7.718706|    0.824000|    0.012021|
|          34|   -5.921361|   -7.718931|    0.823999|    0.012020|
|          35|   -5.919873|   -7.720291|    0.823997|    0.012020|
|          36|   -5.917825|   -7.723311|    0.823996|    0.012020|
|          37|   -5.915270|   -7.728289|    0.823994|    0.012019|
|          38|   -5.912290|   -7.735271|    0.823993|    0.012019|
|          39|   -5.908978|   -7.744068|    0.823992|    0.012019|
|          40|   -5.905427|   -7.754281|    0.823990|    0.012018|
|          41|   -5.901723|   -7.765328|    0.823989|    0.012018|
|          42|   -5.897932|   -7.776494|    0.823987|    0.012017|
|          43|   -5.894099|   -7.786993|    0.823986|    0.012017|
|          44|   -5.890247|   -7.796070|    0.823984|    0.012016|
|          45|   -5.886381|   -7.803108|    0.823983|    0.012016|
|          46|   -5.882483|   -7.807744|    0.823982|    0.012015|
|          47|   -5.878518|   -7.809931|    0.823980|    0.012015|
|          48|   -5.874436|   -7.809938|    0.823979|    0.012014|
|          49|   -5.870182|   -7.808273|    0.823978|    0.012014|
|          50|   -5.865696|   -7.805571|    0.823977|    0.012014|
|          51|   -5.860932|   -7.802475|    0.823976|    0.012013|
|          52|   -5.855862|   -7.799550|    0.823976|    0.012013|
|          53|   -5.850484|   -7.797235|    0.823975|    0.012012|
|          54|   -5.844825|   -7.795826|    0.823975|    0.012012|
|          55|   -5.838938|   -7.795488|    0.823975|    0.012011|
|          56|   -5.832899|   -7.796275|    0.823975|    0.012011|
|          57|   -5.826793|   -7.798161|    0.823976|    0.012011|
|          58|   -5.820709|   -7.801061|    0.823976|    0.012010|
|          59|   -5.814731|   -7.804850|    0.823977|    0.012010|
|          60|   -5.808924|   -7.809369|    0.823978|    0.012010|
|          61|   -5.803342|   -7.814428|    0.823979|    0.012009|
|          62|   -5.798015|   -7.819804|    0.823981|    0.012009|
|          63|   -5.792957|   -7.825241|    0.823982|    0.012009|
|          64|   -5.788166|   -7.830463|    0.823983|    0.012008|
|          65|   -5.783632|   -7.835196|    0.823985|    0.012008|
|          66|   -5.779335|   -7.839204|    0.823986|    0.012008|
|          67|   -5.775259|   -7.842328|    0.823988|    0.012008|
|          68|   -5.771386|   -7.844523|    0.823989|    0.012007|
|          69|   -5.767709|   -7.845864|    0.823990|    0.012007|
|          70|   -5.764223|   -7.846543|    0.823992|    0.012007|
|          71|   -5.760936|   -7.846827|    0.823993|    0.012007|
|          72|   -5.757857|   -7.847009|    0.823994|    0.012007|
|          73|   -5.755000|   -7.847359|    0.823995|    0.012006|
|          74|   -5.752378|   -7.848082|    0.823996|    0.012006|
|          75|   -5.750003|   -7.849290|    0.823997|    0.012006|
|          76|   -5.747878|   -7.850997|    0.823998|    0.012006|
|          77|   -5.746001|   -7.853128|    0.823998|    0.012006|
|          78|   -5.744360|   -7.855537|    0.823999|    0.012006|
|          79|   -5.742937|   -7.858043|    0.824000|    0.012006|
|          80|   -5.741707|   -7.860461|    0.824000|    0.012006|
|          81|   -5.740640|   -7.862637|    0.824001|    0.012006|
|          82|   -5.739708|   -7.864470|    0.824001|    0.012006|
|          83|   -5.738883|   -7.865927|    0.824001|    0.012006|
|          84|   -5.738142|   -7.867040|    0.824002|    0.012006|
|          85|   -5.737470|   -7.867893|    0.824002|    0.012006|
|          86|   -5.736858|   -7.868600|    0.824002|    0.012006|
|          87|   -5.736307|   -7.869289|    0.824003|    0.012006|
|          88|   -5.735828|   -7.870075|    0.824003|    0.012006|
|          89|   -5.735436|   -7.871049|    0.824003|    0.012006|
|          90|   -5.735157|   -7.872275|    0.824003|    0.012006|
|          91|   -5.735017|   -7.873783|    0.824004|    0.012006|
|          92|   -5.735050|   -7.875572|    0.824004|    0.012006|
|          93|   -5.735288|   -7.877623|    0.824004|    0.012006|
|          94|   -5.735765|   -7.879897|    0.824004|    0.012006|
|          95|   -5.736512|   -7.882350|    0.824005|    0.012006|
|          96|   -5.737557|   -7.884936|    0.824005|    0.012006|
|          97|   -5.738922|   -7.887614|    0.824005|    0.012006|
|          98|   -5.740624|   -7.890347|    0.824006|    0.012006|
|          99|   -5.742671|   -7.893108|    0.824006|    0.012007|
|         100|   -5.745060|   -7.895877|    0.824007|    0.012007|
|         101|   -5.747779|   -7.898643|    0.824007|    0.012007|
+-----------------------------------------------------------------------+
|Fixed CL Mode                           |Value                         |
+-----------------------------------------------------------------------+
|Current CL                              |0.824007                      |
|Target CL                               |0.824                         |
|Previous AOA                            |2.7809                        |
|Changed AoA by                          |-3.35629e-05                  |
+-----------------------------------------------------------------------+
+----------------------------------------------------------------+
|  Inner_Iter|    rms[Rho]|     rms[nu]|          CL|          CD|
+----------------------------------------------------------------+
|         102|   -4.665458|   -7.897117|    0.824008|    0.012007|
|         103|   -5.036479|   -7.901886|    0.824008|    0.012007|
|         104|   -5.250346|   -7.905246|    0.824009|    0.012007|
|         105|   -5.316986|   -7.908328|    0.824009|    0.012008|
|         106|   -5.366260|   -7.911291|    0.824010|    0.012008|
|         107|   -5.428505|   -7.914170|    0.824011|    0.012008|
|         108|   -5.501190|   -7.916973|    0.824011|    0.012008|
|         109|   -5.572197|   -7.919707|    0.824012|    0.012009|
|         110|   -5.629269|   -7.922367|    0.824012|    0.012009|
|         111|   -5.668212|   -7.924943|    0.824013|    0.012009|
|         112|   -5.691551|   -7.927420|    0.824013|    0.012010|
|         113|   -5.702820|   -7.929785|    0.824014|    0.012010|
|         114|   -5.705356|   -7.932026|    0.824014|    0.012010|
|         115|   -5.703163|   -7.934130|    0.824015|    0.012011|
|         116|   -5.700165|   -7.936082|    0.824015|    0.012011|
|         117|   -5.698785|   -7.937868|    0.824015|    0.012011|
|         118|   -5.699471|   -7.939478|    0.824015|    0.012011|
|         119|   -5.701259|   -7.940905|    0.824015|    0.012012|
|         120|   -5.702767|   -7.942148|    0.824015|    0.012012|
|         121|   -5.703068|   -7.943213|    0.824015|    0.012012|
|         122|   -5.702015|   -7.944108|    0.824015|    0.012012|
|         123|   -5.700019|   -7.944845|    0.824015|    0.012012|
|         124|   -5.697625|   -7.945443|    0.824015|    0.012013|
|         125|   -5.695230|   -7.945923|    0.824015|    0.012013|
|         126|   -5.693034|   -7.946312|    0.824015|    0.012013|
|         127|   -5.691114|   -7.946636|    0.824015|    0.012013|
|         128|   -5.689501|   -7.946924|    0.824015|    0.012013|
|         129|   -5.688208|   -7.947202|    0.824015|    0.012013|
|         130|   -5.687226|   -7.947495|    0.824015|    0.012014|
|         131|   -5.686525|   -7.947821|    0.824014|    0.012014|
|         132|   -5.686071|   -7.948196|    0.824014|    0.012014|
|         133|   -5.685839|   -7.948629|    0.824014|    0.012014|
|         134|   -5.685821|   -7.949122|    0.824014|    0.012014|
|         135|   -5.686020|   -7.949675|    0.824014|    0.012014|
|         136|   -5.686433|   -7.950280|    0.824014|    0.012014|
|         137|   -5.687038|   -7.950930|    0.824014|    0.012014|
|         138|   -5.687790|   -7.951611|    0.824014|    0.012015|
|         139|   -5.688621|   -7.952314|    0.824014|    0.012015|
|         140|   -5.689445|   -7.953027|    0.824014|    0.012015|
|         141|   -5.690175|   -7.953742|    0.824014|    0.012015|
|         142|   -5.690733|   -7.954456|    0.824014|    0.012015|
|         143|   -5.691069|   -7.955167|    0.824014|    0.012015|
|         144|   -5.691168|   -7.955883|    0.824014|    0.012015|
|         145|   -5.691051|   -7.956614|    0.824014|    0.012015|
|         146|   -5.690770|   -7.957377|    0.824014|    0.012015|
|         147|   -5.690386|   -7.958193|    0.824014|    0.012015|
|         148|   -5.689959|   -7.959088|    0.824013|    0.012015|
|         149|   -5.689532|   -7.960090|    0.824013|    0.012016|
|         150|   -5.689125|   -7.961229|    0.824013|    0.012016|
|         151|   -5.688735|   -7.962537|    0.824013|    0.012016|
|         152|   -5.688342|   -7.964042|    0.824013|    0.012016|
|         153|   -5.687919|   -7.965772|    0.824013|    0.012016|
|         154|   -5.687434|   -7.967749|    0.824012|    0.012016|
|         155|   -5.686866|   -7.969994|    0.824012|    0.012016|
|         156|   -5.686202|   -7.972518|    0.824012|    0.012016|
|         157|   -5.685440|   -7.975328|    0.824011|    0.012016|
|         158|   -5.684589|   -7.978423|    0.824011|    0.012016|
|         159|   -5.683665|   -7.981796|    0.824010|    0.012016|
|         160|   -5.682688|   -7.985429|    0.824010|    0.012016|
|         161|   -5.681682|   -7.989300|    0.824009|    0.012016|
|         162|   -5.680669|   -7.993381|    0.824009|    0.012015|
|         163|   -5.679672|   -7.997636|    0.824008|    0.012015|
|         164|   -5.678712|   -8.002028|    0.824008|    0.012015|
|         165|   -5.677809|   -8.006517|    0.824007|    0.012015|
|         166|   -5.676981|   -8.011061|    0.824007|    0.012015|
|         167|   -5.676247|   -8.015622|    0.824006|    0.012015|
|         168|   -5.675619|   -8.020162|    0.824006|    0.012015|
|         169|   -5.675107|   -8.024649|    0.824005|    0.012015|
|         170|   -5.674720|   -8.029059|    0.824005|    0.012015|
|         171|   -5.674458|   -8.033373|    0.824004|    0.012015|
|         172|   -5.674317|   -8.037580|    0.824004|    0.012014|
|         173|   -5.674290|   -8.041677|    0.824003|    0.012014|
|         174|   -5.674365|   -8.045668|    0.824003|    0.012014|
|         175|   -5.674526|   -8.049565|    0.824003|    0.012014|
|         176|   -5.674755|   -8.053383|    0.824002|    0.012014|
|         177|   -5.675035|   -8.057144|    0.824002|    0.012014|
|         178|   -5.675348|   -8.060869|    0.824002|    0.012014|
|         179|   -5.675680|   -8.064584|    0.824002|    0.012013|
|         180|   -5.676023|   -8.068310|    0.824002|    0.012013|
|         181|   -5.676370|   -8.072069|    0.824002|    0.012013|
|         182|   -5.676725|   -8.075881|    0.824002|    0.012013|
|         183|   -5.677096|   -8.079759|    0.824002|    0.012013|
|         184|   -5.677500|   -8.083715|    0.824002|    0.012013|
|         185|   -5.677960|   -8.087756|    0.824002|    0.012013|
|         186|   -5.678506|   -8.091885|    0.824002|    0.012013|
|         187|   -5.679175|   -8.096102|    0.824002|    0.012012|
|         188|   -5.680005|   -8.100401|    0.824002|    0.012012|
|         189|   -5.681039|   -8.104777|    0.824002|    0.012012|
|         190|   -5.682321|   -8.109218|    0.824003|    0.012012|
|         191|   -5.683892|   -8.113716|    0.824003|    0.012012|
|         192|   -5.685791|   -8.118259|    0.824003|    0.012012|
|         193|   -5.688054|   -8.122836|    0.824003|    0.012012|
|         194|   -5.690708|   -8.127439|    0.824004|    0.012011|
|         195|   -5.693774|   -8.132057|    0.824004|    0.012011|
|         196|   -5.697263|   -8.136685|    0.824004|    0.012011|
|         197|   -5.701174|   -8.141318|    0.824005|    0.012011|
|         198|   -5.705496|   -8.145953|    0.824005|    0.012011|
|         199|   -5.710202|   -8.150592|    0.824005|    0.012011|
|         200|   -5.715255|   -8.155239|    0.824006|    0.012011|
|         201|   -5.720602|   -8.159897|    0.824006|    0.012010|
+-----------------------------------------------------------------------+
|Fixed CL Mode                           |Value                         |
+-----------------------------------------------------------------------+
|Current CL                              |0.824006                      |
|Target CL                               |0.824                         |
|Previous AOA                            |2.78087                       |
|Changed AoA by                          |-2.85009e-05                  |
+-----------------------------------------------------------------------+
+----------------------------------------------------------------+
|  Inner_Iter|    rms[Rho]|     rms[nu]|          CL|          CD|
+----------------------------------------------------------------+
|         202|   -4.736475|   -8.154223|    0.824006|    0.012010|
|         203|   -5.109976|   -8.163496|    0.824007|    0.012010|
|         204|   -5.324933|   -8.169512|    0.824007|    0.012010|
|         205|   -5.385656|   -8.175027|    0.824008|    0.012010|
|         206|   -5.427242|   -8.180468|    0.824008|    0.012010|
|         207|   -5.480661|   -8.185938|    0.824008|    0.012010|
|         208|   -5.542367|   -8.191473|    0.824009|    0.012010|
|         209|   -5.600435|   -8.197093|    0.824009|    0.012010|
|         210|   -5.645023|   -8.202800|    0.824009|    0.012009|
|         211|   -5.674721|   -8.208583|    0.824010|    0.012009|
|         212|   -5.693236|   -8.214427|    0.824010|    0.012009|
|         213|   -5.703997|   -8.220331|    0.824010|    0.012009|
|         214|   -5.709389|   -8.226305|    0.824011|    0.012009|
|         215|   -5.711857|   -8.232354|    0.824011|    0.012009|
|         216|   -5.713846|   -8.238480|    0.824011|    0.012009|
|         217|   -5.716974|   -8.244680|    0.824012|    0.012009|
|         218|   -5.721600|   -8.250948|    0.824012|    0.012009|
|         219|   -5.727112|   -8.257282|    0.824012|    0.012009|
|         220|   -5.732606|   -8.263676|    0.824013|    0.012009|
|         221|   -5.737516|   -8.270120|    0.824013|    0.012009|
|         222|   -5.741841|   -8.276602|    0.824013|    0.012009|
|         223|   -5.745954|   -8.283101|    0.824013|    0.012009|
|         224|   -5.750266|   -8.289590|    0.824014|    0.012009|
|         225|   -5.755009|   -8.296043|    0.824014|    0.012009|
|         226|   -5.760209|   -8.302435|    0.824014|    0.012009|
|         227|   -5.765788|   -8.308743|    0.824014|    0.012010|
|         228|   -5.771662|   -8.314947|    0.824014|    0.012010|
|         229|   -5.777797|   -8.321031|    0.824015|    0.012010|
|         230|   -5.784209|   -8.326982|    0.824015|    0.012010|
|         231|   -5.790960|   -8.332789|    0.824015|    0.012010|
|         232|   -5.798151|   -8.338445|    0.824015|    0.012010|
|         233|   -5.805908|   -8.343945|    0.824015|    0.012010|
|         234|   -5.814375|   -8.349284|    0.824015|    0.012010|
|         235|   -5.823679|   -8.354458|    0.824015|    0.012010|
|         236|   -5.833908|   -8.359463|    0.824015|    0.012010|
|         237|   -5.845081|   -8.364294|    0.824015|    0.012010|
|         238|   -5.857141|   -8.368945|    0.824015|    0.012011|
|         239|   -5.869949|   -8.373406|    0.824015|    0.012011|
|         240|   -5.883295|   -8.377668|    0.824015|    0.012011|
|         241|   -5.896915|   -8.381718|    0.824015|    0.012011|
|         242|   -5.910517|   -8.385543|    0.824015|    0.012011|
|         243|   -5.923824|   -8.389127|    0.824015|    0.012011|
|         244|   -5.936607|   -8.392454|    0.824015|    0.012011|
|         245|   -5.948712|   -8.395510|    0.824015|    0.012011|
|         246|   -5.960072|   -8.398278|    0.824015|    0.012012|
|         247|   -5.970682|   -8.400743|    0.824015|    0.012012|
|         248|   -5.980572|   -8.402895|    0.824015|    0.012012|
|         249|   -5.989773|   -8.404724|    0.824015|    0.012012|
|         250|   -5.998287|   -8.406229|    0.824015|    0.012012|
|         251|   -6.006080|   -8.407413|    0.824015|    0.012012|
|         252|   -6.013086|   -8.408288|    0.824015|    0.012012|
|         253|   -6.019234|   -8.408878|    0.824015|    0.012012|
|         254|   -6.024464|   -8.409208|    0.824015|    0.012012|
|         255|   -6.028757|   -8.409314|    0.824015|    0.012012|
|         256|   -6.032142|   -8.409243|    0.824015|    0.012013|
|         257|   -6.034698|   -8.409046|    0.824014|    0.012013|
|         258|   -6.036543|   -8.408780|    0.824014|    0.012013|
|         259|   -6.037820|   -8.408507|    0.824014|    0.012013|
|         260|   -6.038678|   -8.408290|    0.824014|    0.012013|
|         261|   -6.039256|   -8.408190|    0.824014|    0.012013|
|         262|   -6.039678|   -8.408268|    0.824013|    0.012013|
|         263|   -6.040046|   -8.408578|    0.824013|    0.012013|
|         264|   -6.040439|   -8.409170|    0.824013|    0.012013|
|         265|   -6.040924|   -8.410083|    0.824012|    0.012013|
|         266|   -6.041551|   -8.411349|    0.824012|    0.012013|
|         267|   -6.042362|   -8.412988|    0.824012|    0.012013|
|         268|   -6.043392|   -8.415005|    0.824011|    0.012013|
|         269|   -6.044669|   -8.417395|    0.824011|    0.012013|
|         270|   -6.046217|   -8.420133|    0.824011|    0.012013|
|         271|   -6.048054|   -8.423184|    0.824010|    0.012013|
|         272|   -6.050193|   -8.426492|    0.824010|    0.012013|
|         273|   -6.052642|   -8.429986|    0.824009|    0.012013|
|         274|   -6.055402|   -8.433583|    0.824009|    0.012013|
|         275|   -6.058470|   -8.437182|    0.824009|    0.012013|
|         276|   -6.061839|   -8.440674|    0.824008|    0.012013|
|         277|   -6.065499|   -8.443945|    0.824008|    0.012013|
|         278|   -6.069436|   -8.446880|    0.824007|    0.012013|
|         279|   -6.073634|   -8.449370|    0.824007|    0.012013|
|         280|   -6.078077|   -8.451321|    0.824006|    0.012013|
|         281|   -6.082743|   -8.452657|    0.824006|    0.012013|
|         282|   -6.087613|   -8.453325|    0.824006|    0.012013|
|         283|   -6.092664|   -8.453306|    0.824005|    0.012013|
|         284|   -6.097872|   -8.452614|    0.824005|    0.012013|
|         285|   -6.103210|   -8.451292|    0.824005|    0.012013|
|         286|   -6.108652|   -8.449414|    0.824005|    0.012013|
|         287|   -6.114168|   -8.447078|    0.824004|    0.012012|
|         288|   -6.119729|   -8.444400|    0.824004|    0.012012|
|         289|   -6.125303|   -8.441511|    0.824004|    0.012012|
|         290|   -6.130860|   -8.438545|    0.824004|    0.012012|
|         291|   -6.136368|   -8.435634|    0.824004|    0.012012|
|         292|   -6.141799|   -8.432909|    0.824003|    0.012012|
|         293|   -6.147123|   -8.430487|    0.824003|    0.012012|
|         294|   -6.152314|   -8.428477|    0.824003|    0.012012|
|         295|   -6.157350|   -8.426973|    0.824003|    0.012012|
|         296|   -6.162211|   -8.426053|    0.824003|    0.012012|
|         297|   -6.166882|   -8.425780|    0.824003|    0.012012|
|         298|   -6.171351|   -8.426206|    0.824003|    0.012012|
|         299|   -6.175611|   -8.427364|    0.824003|    0.012011|
|         300|   -6.179661|   -8.429276|    0.824003|    0.012011|
|         301|   -6.183501|   -8.431950|    0.824003|    0.012011|
+-----------------------------------------------------------------------+
|Fixed CL Mode                           |Value                         |
+-----------------------------------------------------------------------+
|Current CL                              |0.824003                      |
|Target CL                               |0.824                         |
|Previous AOA                            |2.78084                       |
|Changed AoA by                          |-1.60974e-05                  |
+-----------------------------------------------------------------------+
+----------------------------------------------------------------+
|  Inner_Iter|    rms[Rho]|     rms[nu]|          CL|          CD|
+----------------------------------------------------------------+
|         302|   -4.985582|   -8.423923|    0.824003|    0.012011|
|         303|   -5.363349|   -8.433403|    0.824003|    0.012011|
|         304|   -5.589579|   -8.439884|    0.824004|    0.012011|
|         305|   -5.658014|   -8.446319|    0.824004|    0.012011|
|         306|   -5.705246|   -8.453112|    0.824004|    0.012011|
|         307|   -5.765862|   -8.460317|    0.824004|    0.012010|
|         308|   -5.837939|   -8.467908|    0.824004|    0.012010|
|         309|   -5.909383|   -8.475841|    0.824004|    0.012010|
|         310|   -5.968138|   -8.484052|    0.824004|    0.012010|
|         311|   -6.010454|   -8.492457|    0.824005|    0.012010|
|         312|   -6.039038|   -8.500961|    0.824005|    0.012010|
|         313|   -6.056920|   -8.509475|    0.824005|    0.012010|
|         314|   -6.066523|   -8.517915|    0.824005|    0.012010|
|         315|   -6.071228|   -8.526195|    0.824005|    0.012010|
|         316|   -6.074969|   -8.534227|    0.824005|    0.012010|
|         317|   -6.080543|   -8.541931|    0.824006|    0.012010|
|         318|   -6.088735|   -8.549243|    0.824006|    0.012010|
|         319|   -6.098662|   -8.556122|    0.824006|    0.012010|
|         320|   -6.108816|   -8.562557|    0.824006|    0.012010|
|         321|   -6.118088|   -8.568553|    0.824006|    0.012010|
|         322|   -6.126239|   -8.574126|    0.824007|    0.012010|
|         323|   -6.133667|   -8.579305|    0.824007|    0.012010|
|         324|   -6.140833|   -8.584136|    0.824007|    0.012010|
|         325|   -6.147874|   -8.588667|    0.824007|    0.012010|
|         326|   -6.154558|   -8.592959|    0.824007|    0.012010|
|         327|   -6.160491|   -8.597078|    0.824007|    0.012010|
|         328|   -6.165330|   -8.601095|    0.824008|    0.012010|
|         329|   -6.168901|   -8.605076|    0.824008|    0.012010|
|         330|   -6.171215|   -8.609085|    0.824008|    0.012010|
|         331|   -6.172426|   -8.613175|    0.824008|    0.012010|
|         332|   -6.172794|   -8.617390|    0.824008|    0.012010|
|         333|   -6.172638|   -8.621757|    0.824008|    0.012010|
|         334|   -6.172286|   -8.626293|    0.824008|    0.012010|
|         335|   -6.172015|   -8.630996|    0.824008|    0.012010|
|         336|   -6.172011|   -8.635851|    0.824009|    0.012010|
|         337|   -6.172342|   -8.640833|    0.824009|    0.012010|
|         338|   -6.172974|   -8.645903|    0.824009|    0.012010|
|         339|   -6.173792|   -8.651013|    0.824009|    0.012010|
|         340|   -6.174635|   -8.656108|    0.824009|    0.012010|
|         341|   -6.175342|   -8.661129|    0.824009|    0.012010|
|         342|   -6.175787|   -8.666013|    0.824009|    0.012010|
|         343|   -6.175912|   -8.670697|    0.824009|    0.012010|
|         344|   -6.175745|   -8.675121|    0.824009|    0.012010|
|         345|   -6.175391|   -8.679226|    0.824009|    0.012010|
|         346|   -6.175009|   -8.682962|    0.824010|    0.012010|
|         347|   -6.174774|   -8.686282|    0.824010|    0.012010|
|         348|   -6.174842|   -8.689150|    0.824010|    0.012010|
|         349|   -6.175325|   -8.691540|    0.824010|    0.012010|
|         350|   -6.176277|   -8.693435|    0.824010|    0.012010|
|         351|   -6.177705|   -8.694831|    0.824010|    0.012011|
|         352|   -6.179573|   -8.695733|    0.824010|    0.012011|
|         353|   -6.181827|   -8.696158|    0.824010|    0.012011|
|         354|   -6.184409|   -8.696141|    0.824010|    0.012011|
|         355|   -6.187273|   -8.695719|    0.824010|    0.012011|
|         356|   -6.190388|   -8.694944|    0.824010|    0.012011|
|         357|   -6.193747|   -8.693868|    0.824010|    0.012011|
|         358|   -6.197357|   -8.692553|    0.824009|    0.012011|
|         359|   -6.201234|   -8.691066|    0.824009|    0.012011|
|         360|   -6.205399|   -8.689477|    0.824009|    0.012011|
|         361|   -6.209867|   -8.687859|    0.824009|    0.012011|
|         362|   -6.214642|   -8.686281|    0.824009|    0.012011|
|         363|   -6.219722|   -8.684814|    0.824009|    0.012011|
|         364|   -6.225090|   -8.683525|    0.824009|    0.012011|
|         365|   -6.230722|   -8.682476|    0.824009|    0.012011|
|         366|   -6.236588|   -8.681729|    0.824008|    0.012011|
|         367|   -6.242652|   -8.681336|    0.824008|    0.012011|
|         368|   -6.248875|   -8.681344|    0.824008|    0.012011|
|         369|   -6.255214|   -8.681795|    0.824008|    0.012012|
|         370|   -6.261627|   -8.682722|    0.824008|    0.012012|
|         371|   -6.268065|   -8.684152|    0.824007|    0.012012|
|         372|   -6.274479|   -8.686101|    0.824007|    0.012012|
|         373|   -6.280816|   -8.688577|    0.824007|    0.012012|
|         374|   -6.287021|   -8.691579|    0.824007|    0.012012|
|         375|   -6.293035|   -8.695093|    0.824006|    0.012012|
|         376|   -6.298802|   -8.699095|    0.824006|    0.012012|
|         377|   -6.304264|   -8.703549|    0.824006|    0.012012|
|         378|   -6.309369|   -8.708405|    0.824006|    0.012012|
|         379|   -6.314068|   -8.713604|    0.824005|    0.012012|
|         380|   -6.318321|   -8.719072|    0.824005|    0.012012|
|         381|   -6.322095|   -8.724725|    0.824005|    0.012012|
|         382|   -6.325367|   -8.730470|    0.824005|    0.012012|
|         383|   -6.328128|   -8.736205|    0.824004|    0.012012|
|         384|   -6.330376|   -8.741825|    0.824004|    0.012012|
|         385|   -6.332124|   -8.747223|    0.824004|    0.012012|
|         386|   -6.333392|   -8.752298|    0.824004|    0.012012|
|         387|   -6.334213|   -8.756958|    0.824003|    0.012012|
|         388|   -6.334625|   -8.761125|    0.824003|    0.012012|
|         389|   -6.334674|   -8.764740|    0.824003|    0.012012|
|         390|   -6.334408|   -8.767767|    0.824003|    0.012012|
|         391|   -6.333881|   -8.770198|    0.824003|    0.012012|
|         392|   -6.333144|   -8.772046|    0.824002|    0.012012|
|         393|   -6.332248|   -8.773352|    0.824002|    0.012012|
|         394|   -6.331242|   -8.774180|    0.824002|    0.012012|
|         395|   -6.330172|   -8.774611|    0.824002|    0.012012|
|         396|   -6.329080|   -8.774738|    0.824002|    0.012012|
|         397|   -6.328001|   -8.774665|    0.824002|    0.012012|
|         398|   -6.326969|   -8.774496|    0.824002|    0.012011|
|         399|   -6.326010|   -8.774335|    0.824001|    0.012011|
|         400|   -6.325147|   -8.774280|    0.824001|    0.012011|
|         401|   -6.324398|   -8.774424|    0.824001|    0.012011|
+-----------------------------------------------------------------------+
|Fixed CL Mode                           |Value                         |
+-----------------------------------------------------------------------+
|Current CL                              |0.824001                      |
|Target CL                               |0.824                         |
|Previous AOA                            |2.78083                       |
|Changed AoA by                          |-6.73705e-06                  |
+-----------------------------------------------------------------------+
+----------------------------------------------------------------+
|  Inner_Iter|    rms[Rho]|     rms[nu]|          CL|          CD|
+----------------------------------------------------------------+
|         402|   -5.362809|   -8.765484|    0.824001|    0.012011|
|         403|   -5.736200|   -8.770921|    0.824001|    0.012011|
|         404|   -5.950014|   -8.773624|    0.824001|    0.012011|
|         405|   -6.007649|   -8.776091|    0.824001|    0.012011|
|         406|   -6.044266|   -8.778696|    0.824001|    0.012011|
|         407|   -6.090339|   -8.781542|    0.824001|    0.012011|
|         408|   -6.142086|   -8.784686|    0.824001|    0.012011|
|         409|   -6.188824|   -8.788163|    0.824001|    0.012011|
|         410|   -6.223363|   -8.791985|    0.824001|    0.012011|
|         411|   -6.246064|   -8.796132|    0.824001|    0.012011|
|         412|   -6.260597|   -8.800569|    0.824001|    0.012011|
|         413|   -6.269679|   -8.805247|    0.824001|    0.012011|
|         414|   -6.274976|   -8.810114|    0.824001|    0.012011|
|         415|   -6.278186|   -8.815103|    0.824001|    0.012011|
|         416|   -6.281090|   -8.820129|    0.824001|    0.012011|
|         417|   -6.284941|   -8.825100|    0.824001|    0.012011|
|         418|   -6.290088|   -8.829929|    0.824001|    0.012011|
|         419|   -6.296158|   -8.834534|    0.824001|    0.012011|
|         420|   -6.302540|   -8.838842|    0.824001|    0.012010|
|         421|   -6.308834|   -8.842794|    0.824001|    0.012010|
|         422|   -6.315007|   -8.846340|    0.824001|    0.012010|
|         423|   -6.321247|   -8.849446|    0.824001|    0.012010|
|         424|   -6.327721|   -8.852091|    0.824001|    0.012010|
|         425|   -6.334421|   -8.854275|    0.824001|    0.012010|
|         426|   -6.341168|   -8.856013|    0.824001|    0.012010|
|         427|   -6.347713|   -8.857343|    0.824001|    0.012010|
|         428|   -6.353845|   -8.858313|    0.824001|    0.012010|
|         429|   -6.359454|   -8.858984|    0.824001|    0.012010|
|         430|   -6.364539|   -8.859421|    0.824001|    0.012010|
|         431|   -6.369189|   -8.859690|    0.824001|    0.012010|
|         432|   -6.373553|   -8.859867|    0.824001|    0.012010|
|         433|   -6.377811|   -8.860005|    0.824001|    0.012010|
|         434|   -6.382134|   -8.860158|    0.824001|    0.012010|
|         435|   -6.386651|   -8.860369|    0.824002|    0.012010|
|         436|   -6.391418|   -8.860668|    0.824002|    0.012010|
|         437|   -6.396406|   -8.861077|    0.824002|    0.012010|
|         438|   -6.401512|   -8.861605|    0.824002|    0.012010|
|         439|   -6.406569|   -8.862251|    0.824002|    0.012010|
|         440|   -6.411380|   -8.863005|    0.824002|    0.012010|
|         441|   -6.415748|   -8.863848|    0.824002|    0.012010|
|         442|   -6.419502|   -8.864755|    0.824002|    0.012010|
|         443|   -6.422530|   -8.865690|    0.824002|    0.012010|
|         444|   -6.424787|   -8.866615|    0.824002|    0.012010|
|         445|   -6.426298|   -8.867484|    0.824002|    0.012010|
|         446|   -6.427141|   -8.868248|    0.824002|    0.012010|
|         447|   -6.427417|   -8.868854|    0.824002|    0.012010|
|         448|   -6.427233|   -8.869250|    0.824002|    0.012010|
|         449|   -6.426674|   -8.869382|    0.824002|    0.012010|
|         450|   -6.425799|   -8.869197|    0.824002|    0.012010|
|         451|   -6.424642|   -8.868649|    0.824002|    0.012011|
|         452|   -6.423218|   -8.867697|    0.824002|    0.012011|
|         453|   -6.421538|   -8.866305|    0.824002|    0.012011|
|         454|   -6.419615|   -8.864456|    0.824002|    0.012011|
|         455|   -6.417475|   -8.862135|    0.824002|    0.012011|
|         456|   -6.415160|   -8.859344|    0.824002|    0.012011|
|         457|   -6.412721|   -8.856098|    0.824002|    0.012011|
|         458|   -6.410220|   -8.852422|    0.824003|    0.012011|
|         459|   -6.407722|   -8.848354|    0.824003|    0.012011|
|         460|   -6.405290|   -8.843941|    0.824003|    0.012011|
|         461|   -6.402980|   -8.839243|    0.824003|    0.012011|
|         462|   -6.400842|   -8.834320|    0.824003|    0.012011|
|         463|   -6.398918|   -8.829240|    0.824003|    0.012011|
|         464|   -6.397242|   -8.824072|    0.824003|    0.012011|
|         465|   -6.395842|   -8.818888|    0.824003|    0.012011|
|         466|   -6.394741|   -8.813754|    0.824002|    0.012011|
|         467|   -6.393960|   -8.808735|    0.824002|    0.012011|
|         468|   -6.393515|   -8.803894|    0.824002|    0.012011|
|         469|   -6.393422|   -8.799283|    0.824002|    0.012011|
|         470|   -6.393693|   -8.794952|    0.824002|    0.012011|
|         471|   -6.394338|   -8.790942|    0.824002|    0.012011|
|         472|   -6.395365|   -8.787288|    0.824002|    0.012011|
|         473|   -6.396778|   -8.784015|    0.824002|    0.012011|
|         474|   -6.398580|   -8.781143|    0.824002|    0.012011|
|         475|   -6.400769|   -8.778683|    0.824002|    0.012011|
|         476|   -6.403343|   -8.776639|    0.824002|    0.012011|
|         477|   -6.406296|   -8.775008|    0.824002|    0.012011|
|         478|   -6.409618|   -8.773781|    0.824002|    0.012011|
|         479|   -6.413299|   -8.772943|    0.824002|    0.012011|
|         480|   -6.417324|   -8.772472|    0.824002|    0.012011|
|         481|   -6.421676|   -8.772341|    0.824002|    0.012011|
|         482|   -6.426336|   -8.772521|    0.824001|    0.012011|
|         483|   -6.431280|   -8.772976|    0.824001|    0.012011|
|         484|   -6.436482|   -8.773670|    0.824001|    0.012011|
|         485|   -6.441913|   -8.774565|    0.824001|    0.012011|
|         486|   -6.447541|   -8.775622|    0.824001|    0.012011|
|         487|   -6.453328|   -8.776804|    0.824001|    0.012011|
|         488|   -6.459235|   -8.778075|    0.824001|    0.012011|
|         489|   -6.465219|   -8.779402|    0.824001|    0.012011|
|         490|   -6.471234|   -8.780756|    0.824001|    0.012011|
|         491|   -6.477232|   -8.782114|    0.824000|    0.012011|
|         492|   -6.483160|   -8.783457|    0.824000|    0.012011|
|         493|   -6.488965|   -8.784772|    0.824000|    0.012011|
|         494|   -6.494594|   -8.786052|    0.824000|    0.012011|
|         495|   -6.499992|   -8.787298|    0.824000|    0.012011|
|         496|   -6.505105|   -8.788514|    0.824000|    0.012011|
|         497|   -6.509882|   -8.789709|    0.824000|    0.012011|
|         498|   -6.514276|   -8.790898|    0.824000|    0.012011|
|         499|   -6.518244|   -8.792098|    0.824000|    0.012011|
|         500|   -6.521750|   -8.793330|    0.824000|    0.012011|
|         501|   -6.524764|   -8.794613|    0.823999|    0.012011|
|         502|   -6.527266|   -8.795970|    0.823999|    0.012011|
|         503|   -6.529245|   -8.797422|    0.823999|    0.012011|
|         504|   -6.530700|   -8.798988|    0.823999|    0.012011|
|         505|   -6.531638|   -8.800686|    0.823999|    0.012011|
|         506|   -6.532079|   -8.802530|    0.823999|    0.012011|
|         507|   -6.532048|   -8.804533|    0.823999|    0.012011|
|         508|   -6.531580|   -8.806703|    0.823999|    0.012011|
|         509|   -6.530717|   -8.809044|    0.823999|    0.012011|
|         510|   -6.529503|   -8.811559|    0.823999|    0.012011|
|         511|   -6.527991|   -8.814246|    0.823999|    0.012011|
|         512|   -6.526233|   -8.817099|    0.823999|    0.012011|
|         513|   -6.524282|   -8.820108|    0.823999|    0.012011|
|         514|   -6.522194|   -8.823264|    0.823999|    0.012011|
|         515|   -6.520022|   -8.826552|    0.823999|    0.012011|
|         516|   -6.517816|   -8.829957|    0.823999|    0.012011|
|         517|   -6.515627|   -8.833460|    0.823998|    0.012011|
|         518|   -6.513500|   -8.837043|    0.823998|    0.012011|
|         519|   -6.511479|   -8.840687|    0.823998|    0.012011|
|         520|   -6.509603|   -8.844373|    0.823998|    0.012011|
|         521|   -6.507908|   -8.848080|    0.823998|    0.012011|
|         522|   -6.506426|   -8.851791|    0.823998|    0.012011|
|         523|   -6.505187|   -8.855490|    0.823998|    0.012011|
|         524|   -6.504216|   -8.859161|    0.823998|    0.012011|
|         525|   -6.503536|   -8.862792|    0.823998|    0.012010|
|         526|   -6.503164|   -8.866372|    0.823998|    0.012010|
|         527|   -6.503118|   -8.869895|    0.823998|    0.012010|
|         528|   -6.503410|   -8.873354|    0.823998|    0.012010|
|         529|   -6.504051|   -8.876750|    0.823998|    0.012010|
|         530|   -6.505047|   -8.880082|    0.823998|    0.012010|
|         531|   -6.506405|   -8.883355|    0.823998|    0.012010|
|         532|   -6.508125|   -8.886574|    0.823998|    0.012010|
|         533|   -6.510208|   -8.889749|    0.823998|    0.012010|
|         534|   -6.512651|   -8.892890|    0.823998|    0.012010|
|         535|   -6.515446|   -8.896009|    0.823998|    0.012010|
|         536|   -6.518587|   -8.899121|    0.823998|    0.012010|
|         537|   -6.522060|   -8.902239|    0.823998|    0.012010|
|         538|   -6.525852|   -8.905378|    0.823998|    0.012010|
|         539|   -6.529944|   -8.908554|    0.823998|    0.012010|
|         540|   -6.534314|   -8.911779|    0.823998|    0.012010|
|         541|   -6.538939|   -8.915069|    0.823998|    0.012010|
|         542|   -6.543790|   -8.918435|    0.823998|    0.012010|
|         543|   -6.548834|   -8.921890|    0.823998|    0.012010|
|         544|   -6.554037|   -8.925442|    0.823998|    0.012010|
|         545|   -6.559358|   -8.929098|    0.823998|    0.012010|
|         546|   -6.564754|   -8.932865|    0.823998|    0.012010|
|         547|   -6.570180|   -8.936743|    0.823998|    0.012010|
|         548|   -6.575587|   -8.940733|    0.823998|    0.012010|
|         549|   -6.580922|   -8.944830|    0.823998|    0.012010|
|         550|   -6.586134|   -8.949027|    0.823998|    0.012010|
|         551|   -6.591168|   -8.953313|    0.823998|    0.012010|
|         552|   -6.595973|   -8.957674|    0.823998|    0.012010|
|         553|   -6.600496|   -8.962092|    0.823998|    0.012011|
|         554|   -6.604690|   -8.966544|    0.823999|    0.012011|
|         555|   -6.608510|   -8.971006|    0.823999|    0.012011|
|         556|   -6.611921|   -8.975449|    0.823999|    0.012011|
|         557|   -6.614890|   -8.979842|    0.823999|    0.012011|
|         558|   -6.617397|   -8.984150|    0.823999|    0.012011|
|         559|   -6.619427|   -8.988339|    0.823999|    0.012011|
|         560|   -6.620978|   -8.992372|    0.823999|    0.012011|
|         561|   -6.622056|   -8.996214|    0.823999|    0.012011|
|         562|   -6.622678|   -8.999828|    0.823999|    0.012011|
|         563|   -6.622867|   -9.003184|    0.823999|    0.012011|
|         564|   -6.622657|   -9.006250|    0.823999|    0.012011|
|         565|   -6.622087|   -9.009002|    0.823999|    0.012011|
|         566|   -6.621204|   -9.011421|    0.823999|    0.012011|
|         567|   -6.620055|   -9.013492|    0.823999|    0.012011|
|         568|   -6.618694|   -9.015209|    0.823999|    0.012011|
|         569|   -6.617174|   -9.016572|    0.823999|    0.012011|
|         570|   -6.615549|   -9.017588|    0.823999|    0.012011|
|         571|   -6.613871|   -9.018270|    0.823999|    0.012011|
|         572|   -6.612192|   -9.018638|    0.823999|    0.012011|
|         573|   -6.610560|   -9.018719|    0.823999|    0.012011|
|         574|   -6.609022|   -9.018540|    0.823999|    0.012011|
|         575|   -6.607619|   -9.018137|    0.823999|    0.012011|
|         576|   -6.606390|   -9.017542|    0.823999|    0.012011|
|         577|   -6.605372|   -9.016794|    0.823999|    0.012011|
|         578|   -6.604595|   -9.015927|    0.823999|    0.012011|
|         579|   -6.604088|   -9.014978|    0.823999|    0.012011|
|         580|   -6.603874|   -9.013978|    0.823998|    0.012011|
|         581|   -6.603976|   -9.012960|    0.823998|    0.012012|
|         582|   -6.604409|   -9.011950|    0.823998|    0.012012|
|         583|   -6.605190|   -9.010972|    0.823998|    0.012012|
|         584|   -6.606329|   -9.010047|    0.823998|    0.012012|
|         585|   -6.607834|   -9.009191|    0.823998|    0.012012|
|         586|   -6.609711|   -9.008417|    0.823998|    0.012012|
|         587|   -6.611962|   -9.007733|    0.823998|    0.012012|
|         588|   -6.614587|   -9.007148|    0.823998|    0.012012|
|         589|   -6.617583|   -9.006663|    0.823998|    0.012012|
|         590|   -6.620944|   -9.006278|    0.823998|    0.012012|
|         591|   -6.624660|   -9.005990|    0.823998|    0.012012|
|         592|   -6.628719|   -9.005794|    0.823998|    0.012012|
|         593|   -6.633106|   -9.005684|    0.823998|    0.012012|
|         594|   -6.637802|   -9.005651|    0.823998|    0.012012|
|         595|   -6.642785|   -9.005688|    0.823998|    0.012012|
|         596|   -6.648029|   -9.005785|    0.823998|    0.012012|
|         597|   -6.653503|   -9.005934|    0.823998|    0.012012|
|         598|   -6.659175|   -9.006127|    0.823998|    0.012012|
|         599|   -6.665005|   -9.006357|    0.823998|    0.012012|
|         600|   -6.670953|   -9.006617|    0.823997|    0.012012|
|         601|   -6.676972|   -9.006903|    0.823997|    0.012012|
+-----------------------------------------------------------------------+
|Fixed CL Mode                           |Value                         |
+-----------------------------------------------------------------------+
|Current CL                              |0.823997                      |
|Target CL                               |0.824                         |
|Previous AOA                            |2.78082                       |
|Changed AoA by                          |1.26363e-05                   |
+-----------------------------------------------------------------------+
+----------------------------------------------------------------+
|  Inner_Iter|    rms[Rho]|     rms[nu]|          CL|          CD|
+----------------------------------------------------------------+
|         602|   -5.091479|   -8.928216|    0.823997|    0.012012|
|         603|   -5.474247|   -8.964281|    0.823997|    0.012012|
|         604|   -5.714390|   -8.976188|    0.823997|    0.012012|
|         605|   -5.791865|   -8.982980|    0.823997|    0.012012|
|         606|   -5.845359|   -8.987929|    0.823997|    0.012012|
|         607|   -5.914509|   -8.991869|    0.823997|    0.012012|
|         608|   -5.999425|   -8.995126|    0.823997|    0.012012|
|         609|   -6.087464|   -8.997895|    0.823997|    0.012012|
|         610|   -6.162724|   -9.000286|    0.823997|    0.012012|
|         611|   -6.217481|   -9.002324|    0.823997|    0.012012|
|         612|   -6.253524|   -9.004027|    0.823997|    0.012012|
|         613|   -6.274571|   -9.005476|    0.823997|    0.012012|
|         614|   -6.284244|   -9.006790|    0.823997|    0.012012|
|         615|   -6.288010|   -9.008057|    0.823997|    0.012011|
|         616|   -6.292078|   -9.009297|    0.823997|    0.012011|
|         617|   -6.300629|   -9.010505|    0.823997|    0.012011|
|         618|   -6.314629|   -9.011674|    0.823997|    0.012011|
|         619|   -6.332380|   -9.012829|    0.823997|    0.012011|
|         620|   -6.350972|   -9.014012|    0.823997|    0.012011|
|         621|   -6.368008|   -9.015260|    0.823996|    0.012011|
|         622|   -6.382722|   -9.016585|    0.823996|    0.012011|
|         623|   -6.395837|   -9.017987|    0.823996|    0.012011|
|         624|   -6.408510|   -9.019450|    0.823996|    0.012011|
|         625|   -6.421410|   -9.020939|    0.823996|    0.012011|
|         626|   -6.434448|   -9.022439|    0.823996|    0.012011|
|         627|   -6.447040|   -9.023944|    0.823996|    0.012011|
|         628|   -6.458490|   -9.025457|    0.823996|    0.012011|
|         629|   -6.468256|   -9.026980|    0.823996|    0.012011|
|         630|   -6.476060|   -9.028520|    0.823996|    0.012011|
|         631|   -6.481912|   -9.030081|    0.823996|    0.012011|
|         632|   -6.486122|   -9.031671|    0.823996|    0.012011|
|         633|   -6.489259|   -9.033295|    0.823996|    0.012011|
|         634|   -6.492048|   -9.034959|    0.823996|    0.012011|
|         635|   -6.495206|   -9.036664|    0.823996|    0.012011|
|         636|   -6.499298|   -9.038411|    0.823996|    0.012011|
|         637|   -6.504643|   -9.040203|    0.823996|    0.012011|
|         638|   -6.511287|   -9.042041|    0.823996|    0.012011|
|         639|   -6.519026|   -9.043932|    0.823996|    0.012011|
|         640|   -6.527451|   -9.045883|    0.823996|    0.012011|
|         641|   -6.536029|   -9.047906|    0.823997|    0.012011|
|         642|   -6.544221|   -9.050016|    0.823997|    0.012011|
|         643|   -6.551611|   -9.052234|    0.823997|    0.012011|
|         644|   -6.558016|   -9.054579|    0.823997|    0.012011|
|         645|   -6.563540|   -9.057075|    0.823997|    0.012011|
|         646|   -6.568526|   -9.059744|    0.823997|    0.012011|
|         647|   -6.573452|   -9.062610|    0.823997|    0.012011|
|         648|   -6.578797|   -9.065692|    0.823997|    0.012011|
|         649|   -6.584932|   -9.069009|    0.823997|    0.012011|
|         650|   -6.592061|   -9.072577|    0.823997|    0.012011|
|         651|   -6.600204|   -9.076410|    0.823997|    0.012011|
|         652|   -6.609226|   -9.080524|    0.823997|    0.012011|
|         653|   -6.618887|   -9.084936|    0.823997|    0.012011|
|         654|   -6.628901|   -9.089644|    0.823997|    0.012011|
|         655|   -6.639000|   -9.094656|    0.823997|    0.012011|
|         656|   -6.648981|   -9.100021|    0.823998|    0.012011|
|         657|   -6.658728|   -9.105742|    0.823998|    0.012011|
|         658|   -6.668217|   -9.111836|    0.823998|    0.012011|
|         659|   -6.677495|   -9.118317|    0.823998|    0.012011|
|         660|   -6.686642|   -9.125198|    0.823998|    0.012011|
|         661|   -6.695743|   -9.132497|    0.823998|    0.012011|
|         662|   -6.704859|   -9.140224|    0.823998|    0.012011|
|         663|   -6.714013|   -9.148386|    0.823998|    0.012011|
|         664|   -6.723188|   -9.156985|    0.823998|    0.012011|
|         665|   -6.732331|   -9.166015|    0.823999|    0.012011|
|         666|   -6.741371|   -9.175456|    0.823999|    0.012011|
|         667|   -6.750226|   -9.185279|    0.823999|    0.012011|
|         668|   -6.758816|   -9.195438|    0.823999|    0.012011|
|         669|   -6.767073|   -9.205858|    0.823999|    0.012011|
|         670|   -6.774935|   -9.216449|    0.823999|    0.012011|
|         671|   -6.782355|   -9.227093|    0.823999|    0.012011|
|         672|   -6.789291|   -9.237645|    0.823999|    0.012011|
|         673|   -6.795711|   -9.247929|    0.824000|    0.012011|
|         674|   -6.801585|   -9.257748|    0.824000|    0.012011|
|         675|   -6.806890|   -9.266883|    0.824000|    0.012011|
|         676|   -6.811613|   -9.275097|    0.824000|    0.012011|
|         677|   -6.815748|   -9.282189|    0.824000|    0.012011|
|         678|   -6.819303|   -9.287943|    0.824000|    0.012011|
|         679|   -6.822298|   -9.292207|    0.824000|    0.012011|
|         680|   -6.824769|   -9.294880|    0.824000|    0.012011|
|         681|   -6.826762|   -9.295937|    0.824000|    0.012011|
|         682|   -6.828336|   -9.295432|    0.824000|    0.012012|
|         683|   -6.829557|   -9.293489|    0.824000|    0.012012|
|         684|   -6.830497|   -9.290301|    0.824000|    0.012012|
|         685|   -6.831232|   -9.286109|    0.824000|    0.012012|
|         686|   -6.831838|   -9.281182|    0.824000|    0.012012|
|         687|   -6.832389|   -9.275800|    0.824000|    0.012012|
|         688|   -6.832956|   -9.270238|    0.824000|    0.012012|
|         689|   -6.833607|   -9.264752|    0.824000|    0.012012|
|         690|   -6.834402|   -9.259573|    0.824000|    0.012012|
|         691|   -6.835398|   -9.254904|    0.824000|    0.012012|
|         692|   -6.836641|   -9.250916|    0.824000|    0.012012|
|         693|   -6.838175|   -9.247751|    0.824000|    0.012012|
|         694|   -6.840032|   -9.245522|    0.824000|    0.012012|
|         695|   -6.842240|   -9.244316|    0.824000|    0.012012|
|         696|   -6.844819|   -9.244195|    0.824000|    0.012012|
|         697|   -6.847782|   -9.245200|    0.824000|    0.012012|
|         698|   -6.851137|   -9.247348|    0.824000|    0.012012|
|         699|   -6.854883|   -9.250643|    0.824000|    0.012012|
|         700|   -6.859017|   -9.255066|    0.824000|    0.012012|
|         701|   -6.863528|   -9.260579|    0.823999|    0.012012|
|         702|   -6.868399|   -9.267123|    0.823999|    0.012012|
|         703|   -6.873610|   -9.274613|    0.823999|    0.012012|
|         704|   -6.879137|   -9.282942|    0.823999|    0.012012|
|         705|   -6.884948|   -9.291973|    0.823999|    0.012012|
|         706|   -6.891010|   -9.301540|    0.823999|    0.012012|
|         707|   -6.897285|   -9.311445|    0.823999|    0.012012|
|         708|   -6.903731|   -9.321460|    0.823999|    0.012012|
|         709|   -6.910303|   -9.331331|    0.823999|    0.012012|
|         710|   -6.916955|   -9.340779|    0.823999|    0.012012|
|         711|   -6.923635|   -9.349516|    0.823999|    0.012012|
|         712|   -6.930294|   -9.357260|    0.823998|    0.012012|
|         713|   -6.936880|   -9.363748|    0.823998|    0.012012|
|         714|   -6.943341|   -9.368765|    0.823998|    0.012012|
|         715|   -6.949626|   -9.372156|    0.823998|    0.012012|
|         716|   -6.955689|   -9.373843|    0.823998|    0.012012|
|         717|   -6.961485|   -9.373834|    0.823998|    0.012012|
|         718|   -6.966974|   -9.372216|    0.823998|    0.012012|
|         719|   -6.972120|   -9.369147|    0.823998|    0.012012|
|         720|   -6.976896|   -9.364838|    0.823998|    0.012012|
|         721|   -6.981280|   -9.359531|    0.823998|    0.012012|
|         722|   -6.985258|   -9.353480|    0.823998|    0.012012|
|         723|   -6.988821|   -9.346935|    0.823998|    0.012012|
|         724|   -6.991972|   -9.340131|    0.823998|    0.012012|
|         725|   -6.994717|   -9.333279|    0.823998|    0.012012|
|         726|   -6.997071|   -9.326557|    0.823998|    0.012012|
|         727|   -6.999054|   -9.320119|    0.823998|    0.012012|
|         728|   -7.000694|   -9.314086|    0.823998|    0.012012|
|         729|   -7.002021|   -9.308553|    0.823997|    0.012011|
|         730|   -7.003069|   -9.303592|    0.823997|    0.012011|
|         731|   -7.003875|   -9.299253|    0.823997|    0.012011|
|         732|   -7.004480|   -9.295568|    0.823997|    0.012011|
|         733|   -7.004923|   -9.292554|    0.823997|    0.012011|
|         734|   -7.005244|   -9.290215|    0.823997|    0.012011|
|         735|   -7.005485|   -9.288542|    0.823997|    0.012011|
|         736|   -7.005683|   -9.287519|    0.823997|    0.012011|
|         737|   -7.005876|   -9.287120|    0.823998|    0.012011|
|         738|   -7.006100|   -9.287312|    0.823998|    0.012011|
|         739|   -7.006387|   -9.288058|    0.823998|    0.012011|
|         740|   -7.006769|   -9.289314|    0.823998|    0.012011|
|         741|   -7.007271|   -9.291036|    0.823998|    0.012011|
|         742|   -7.007920|   -9.293174|    0.823998|    0.012011|
|         743|   -7.008735|   -9.295680|    0.823998|    0.012011|
|         744|   -7.009737|   -9.298503|    0.823998|    0.012011|
|         745|   -7.010939|   -9.301594|    0.823998|    0.012011|
|         746|   -7.012354|   -9.304906|    0.823998|    0.012011|
|         747|   -7.013991|   -9.308395|    0.823998|    0.012011|
|         748|   -7.015857|   -9.312020|    0.823998|    0.012011|
|         749|   -7.017953|   -9.315746|    0.823998|    0.012011|
|         750|   -7.020280|   -9.319542|    0.823998|    0.012011|
|         751|   -7.022836|   -9.323383|    0.823998|    0.012011|
|         752|   -7.025613|   -9.327248|    0.823998|    0.012011|
|         753|   -7.028604|   -9.331123|    0.823998|    0.012011|
|         754|   -7.031796|   -9.334998|    0.823998|    0.012011|
|         755|   -7.035175|   -9.338865|    0.823998|    0.012011|
|         756|   -7.038724|   -9.342721|    0.823998|    0.012011|
|         757|   -7.042421|   -9.346565|    0.823998|    0.012011|
|         758|   -7.046244|   -9.350395|    0.823998|    0.012011|
|         759|   -7.050168|   -9.354212|    0.823998|    0.012011|
|         760|   -7.054164|   -9.358014|    0.823998|    0.012011|
|         761|   -7.058203|   -9.361799|    0.823998|    0.012011|
|         762|   -7.062253|   -9.365564|    0.823998|    0.012011|
|         763|   -7.066282|   -9.369304|    0.823998|    0.012011|
|         764|   -7.070255|   -9.373013|    0.823998|    0.012011|
|         765|   -7.074138|   -9.376684|    0.823998|    0.012011|
|         766|   -7.077899|   -9.380311|    0.823998|    0.012011|
|         767|   -7.081503|   -9.383887|    0.823998|    0.012011|
|         768|   -7.084921|   -9.387409|    0.823998|    0.012011|
|         769|   -7.088125|   -9.390874|    0.823999|    0.012011|
|         770|   -7.091088|   -9.394284|    0.823999|    0.012011|
|         771|   -7.093790|   -9.397642|    0.823999|    0.012011|
|         772|   -7.096215|   -9.400957|    0.823999|    0.012011|
|         773|   -7.098351|   -9.404241|    0.823999|    0.012011|
|         774|   -7.100191|   -9.407508|    0.823999|    0.012011|
|         775|   -7.101735|   -9.410775|    0.823999|    0.012011|
|         776|   -7.102987|   -9.414059|    0.823999|    0.012011|
|         777|   -7.103958|   -9.417378|    0.823999|    0.012011|
|         778|   -7.104664|   -9.420748|    0.823999|    0.012011|
|         779|   -7.105123|   -9.424181|    0.823999|    0.012011|
|         780|   -7.105360|   -9.427684|    0.823999|    0.012011|
|         781|   -7.105404|   -9.431257|    0.823999|    0.012011|
|         782|   -7.105283|   -9.434895|    0.823999|    0.012011|
|         783|   -7.105031|   -9.438583|    0.823999|    0.012011|
|         784|   -7.104681|   -9.442296|    0.823999|    0.012011|
|         785|   -7.104268|   -9.446004|    0.823999|    0.012011|
|         786|   -7.103827|   -9.449666|    0.823999|    0.012011|
|         787|   -7.103390|   -9.453237|    0.823999|    0.012011|
|         788|   -7.102991|   -9.456666|    0.823999|    0.012011|
|         789|   -7.102660|   -9.459902|    0.823999|    0.012011|
|         790|   -7.102428|   -9.462896|    0.823999|    0.012011|
|         791|   -7.102321|   -9.465601|    0.823999|    0.012011|
|         792|   -7.102363|   -9.467982|    0.823999|    0.012011|
|         793|   -7.102577|   -9.470013|    0.823999|    0.012011|
|         794|   -7.102980|   -9.471682|    0.823999|    0.012011|
|         795|   -7.103588|   -9.472994|    0.823999|    0.012011|
|         796|   -7.104414|   -9.473971|    0.823999|    0.012011|
|         797|   -7.105467|   -9.474647|    0.823999|    0.012011|
|         798|   -7.106753|   -9.475074|    0.823999|    0.012011|
|         799|   -7.108273|   -9.475315|    0.823999|    0.012011|
|         800|   -7.110027|   -9.475442|    0.823999|    0.012011|
|         801|   -7.112009|   -9.475533|    0.823999|    0.012011|
+-----------------------------------------------------------------------+
|Fixed CL Mode                           |Value                         |
+-----------------------------------------------------------------------+
|Current CL                              |0.823999                      |
|Target CL                               |0.824                         |
|Previous AOA                            |2.78083                       |
|Changed AoA by                          |4.30729e-06                   |
+-----------------------------------------------------------------------+
+----------------------------------------------------------------+
|  Inner_Iter|    rms[Rho]|     rms[nu]|          CL|          CD|
+----------------------------------------------------------------+
|         802|   -5.558955|   -9.395833|    0.823999|    0.012011|
|         803|   -5.941613|   -9.432157|    0.823999|    0.012011|
|         804|   -6.180199|   -9.444466|    0.823999|    0.012012|
|         805|   -6.255645|   -9.451829|    0.823999|    0.012012|
|         806|   -6.307586|   -9.457542|    0.823999|    0.012012|
|         807|   -6.375242|   -9.462488|    0.823999|    0.012012|
|         808|   -6.458512|   -9.467058|    0.823999|    0.012012|
|         809|   -6.545042|   -9.471514|    0.823999|    0.012012|
|         810|   -6.619664|   -9.476018|    0.823999|    0.012012|
|         811|   -6.675080|   -9.480625|    0.823999|    0.012012|
|         812|   -6.712757|   -9.485334|    0.823999|    0.012012|
|         813|   -6.735810|   -9.490196|    0.823999|    0.012012|
|         814|   -6.747321|   -9.495285|    0.823999|    0.012012|
|         815|   -6.752416|   -9.500637|    0.823999|    0.012012|
|         816|   -6.757230|   -9.506210|    0.823999|    0.012012|
|         817|   -6.766054|   -9.511943|    0.823999|    0.012012|
|         818|   -6.780024|   -9.517748|    0.823999|    0.012012|
|         819|   -6.797624|   -9.523594|    0.823999|    0.012012|
|         820|   -6.816133|   -9.529464|    0.823999|    0.012012|
|         821|   -6.833310|   -9.535335|    0.823999|    0.012012|
|         822|   -6.848469|   -9.541160|    0.823999|    0.012012|
|         823|   -6.862306|   -9.546873|    0.823999|    0.012012|
|         824|   -6.875886|   -9.552375|    0.823999|    0.012012|
|         825|   -6.889749|   -9.557579|    0.823999|    0.012012|
|         826|   -6.903672|   -9.562431|    0.823999|    0.012012|
|         827|   -6.916935|   -9.566846|    0.823999|    0.012012|
|         828|   -6.928740|   -9.570778|    0.823999|    0.012012|
|         829|   -6.938501|   -9.574221|    0.823999|    0.012012|
|         830|   -6.945958|   -9.577180|    0.823999|    0.012012|
|         831|   -6.951194|   -9.579665|    0.823999|    0.012012|
|         832|   -6.954616|   -9.581684|    0.823999|    0.012012|
|         833|   -6.956884|   -9.583249|    0.823999|    0.012012|
|         834|   -6.958778|   -9.584369|    0.823999|    0.012012|
|         835|   -6.961029|   -9.585051|    0.823999|    0.012012|
|         836|   -6.964176|   -9.585300|    0.823999|    0.012012|
|         837|   -6.968486|   -9.585117|    0.823999|    0.012012|
|         838|   -6.973945|   -9.584503|    0.823999|    0.012012|
|         839|   -6.980284|   -9.583460|    0.823999|    0.012011|
|         840|   -6.987049|   -9.581997|    0.823999|    0.012011|
|         841|   -6.993687|   -9.580125|    0.823998|    0.012011|
|         842|   -6.999669|   -9.577865|    0.823998|    0.012011|
|         843|   -7.004622|   -9.575240|    0.823998|    0.012011|
|         844|   -7.008426|   -9.572282|    0.823998|    0.012011|
|         845|   -7.011238|   -9.569030|    0.823998|    0.012011|
|         846|   -7.013438|   -9.565523|    0.823998|    0.012011|
|         847|   -7.015509|   -9.561803|    0.823998|    0.012011|
|         848|   -7.017910|   -9.557914|    0.823998|    0.012011|
|         849|   -7.020980|   -9.553899|    0.823998|    0.012011|
|         850|   -7.024890|   -9.549807|    0.823998|    0.012011|
|         851|   -7.029646|   -9.545683|    0.823998|    0.012011|
|         852|   -7.035115|   -9.541569|    0.823999|    0.012011|
|         853|   -7.041089|   -9.537565|    0.823999|    0.012011|
|         854|   -7.047330|   -9.533651|    0.823999|    0.012011|
|         855|   -7.053633|   -9.529906|    0.823999|    0.012011|
|         856|   -7.059852|   -9.526397|    0.823999|    0.012011|
|         857|   -7.065921|   -9.523187|    0.823999|    0.012011|
|         858|   -7.071843|   -9.520341|    0.823999|    0.012011|
|         859|   -7.077672|   -9.517920|    0.823999|    0.012011|
|         860|   -7.083481|   -9.515986|    0.823999|    0.012011|
|         861|   -7.089340|   -9.514599|    0.823999|    0.012011|
|         862|   -7.095295|   -9.513817|    0.823999|    0.012011|
|         863|   -7.101358|   -9.513697|    0.823999|    0.012011|
|         864|   -7.107514|   -9.514292|    0.823999|    0.012011|
|         865|   -7.113718|   -9.515650|    0.823999|    0.012011|
|         866|   -7.119915|   -9.517812|    0.823999|    0.012011|
|         867|   -7.126039|   -9.520809|    0.823999|    0.012011|
|         868|   -7.132028|   -9.524663|    0.823999|    0.012011|
|         869|   -7.137826|   -9.529385|    0.823999|    0.012011|
|         870|   -7.143382|   -9.534972|    0.823999|    0.012011|
|         871|   -7.148652|   -9.541402|    0.823999|    0.012011|
|         872|   -7.153594|   -9.548636|    0.823999|    0.012011|
|         873|   -7.158172|   -9.556607|    0.823999|    0.012011|
|         874|   -7.162352|   -9.565226|    0.823999|    0.012011|
|         875|   -7.166104|   -9.574370|    0.823999|    0.012011|
|         876|   -7.169400|   -9.583888|    0.823999|    0.012011|
|         877|   -7.172224|   -9.593593|    0.823999|    0.012011|
|         878|   -7.174564|   -9.603269|    0.823999|    0.012011|
|         879|   -7.176420|   -9.612672|    0.824000|    0.012011|
|         880|   -7.177803|   -9.621541|    0.824000|    0.012011|
|         881|   -7.178734|   -9.629611|    0.824000|    0.012011|
|         882|   -7.179244|   -9.636631|    0.824000|    0.012011|
|         883|   -7.179372|   -9.642384|    0.824000|    0.012011|
|         884|   -7.179166|   -9.646709|    0.824000|    0.012011|
|         885|   -7.178675|   -9.649514|    0.824000|    0.012011|
|         886|   -7.177955|   -9.650793|    0.824000|    0.012011|
|         887|   -7.177063|   -9.650620|    0.824000|    0.012011|
|         888|   -7.176055|   -9.649145|    0.824000|    0.012011|
|         889|   -7.174987|   -9.646574|    0.824000|    0.012011|
|         890|   -7.173912|   -9.643156|    0.824000|    0.012011|
|         891|   -7.172880|   -9.639152|    0.824000|    0.012011|
|         892|   -7.171936|   -9.634826|    0.824000|    0.012011|
|         893|   -7.171121|   -9.630424|    0.824000|    0.012011|
|         894|   -7.170470|   -9.626168|    0.824000|    0.012011|
|         895|   -7.170014|   -9.622247|    0.824000|    0.012011|
|         896|   -7.169777|   -9.618818|    0.824000|    0.012011|
|         897|   -7.169780|   -9.616006|    0.824000|    0.012011|
|         898|   -7.170038|   -9.613901|    0.824000|    0.012011|
|         899|   -7.170562|   -9.612568|    0.824000|    0.012011|
|         900|   -7.171358|   -9.612042|    0.824000|    0.012011|
|         901|   -7.172429|   -9.612337|    0.824000|    0.012011|
|         902|   -7.173776|   -9.613443|    0.824000|    0.012011|
|         903|   -7.175393|   -9.615334|    0.824000|    0.012011|
|         904|   -7.177276|   -9.617964|    0.824000|    0.012011|
|         905|   -7.179417|   -9.621273|    0.824000|    0.012011|
|         906|   -7.181806|   -9.625187|    0.824000|    0.012011|
|         907|   -7.184431|   -9.629619|    0.824000|    0.012011|
|         908|   -7.187279|   -9.634474|    0.824000|    0.012011|
|         909|   -7.190338|   -9.639646|    0.824000|    0.012011|
|         910|   -7.193590|   -9.645027|    0.824000|    0.012011|
|         911|   -7.197023|   -9.650504|    0.824000|    0.012011|
|         912|   -7.200619|   -9.655968|    0.824000|    0.012011|
|         913|   -7.204361|   -9.661313|    0.824000|    0.012011|
|         914|   -7.208233|   -9.666443|    0.824000|    0.012011|
|         915|   -7.212217|   -9.671277|    0.824000|    0.012011|
|         916|   -7.216294|   -9.675747|    0.824000|    0.012011|
|         917|   -7.220446|   -9.679806|    0.824000|    0.012011|
|         918|   -7.224654|   -9.683430|    0.824000|    0.012011|
|         919|   -7.228896|   -9.686613|    0.824000|    0.012011|
|         920|   -7.233151|   -9.689371|    0.823999|    0.012011|
|         921|   -7.237397|   -9.691738|    0.823999|    0.012011|
|         922|   -7.241610|   -9.693766|    0.823999|    0.012011|
|         923|   -7.245766|   -9.695515|    0.823999|    0.012011|
|         924|   -7.249838|   -9.697058|    0.823999|    0.012011|
|         925|   -7.253800|   -9.698469|    0.823999|    0.012011|
|         926|   -7.257624|   -9.699826|    0.823999|    0.012011|
|         927|   -7.261281|   -9.701203|    0.823999|    0.012011|
|         928|   -7.264745|   -9.702672|    0.823999|    0.012011|
|         929|   -7.267986|   -9.704297|    0.823999|    0.012011|
|         930|   -7.270978|   -9.706134|    0.823999|    0.012011|
|         931|   -7.273697|   -9.708232|    0.823999|    0.012011|
[...]
|        5298|   -6.043452|   -7.966317|    0.824238|    0.012015|
|        5299|   -6.050300|   -7.970309|    0.824238|    0.012015|
|        5300|   -6.056728|   -7.974346|    0.824238|    0.012015|
|        5301|   -6.062698|   -7.978445|    0.824238|    0.012015|
|        5302|   -6.068183|   -7.982620|    0.824239|    0.012015|
|        5303|   -6.073171|   -7.986883|    0.824239|    0.012015|
|        5304|   -6.077657|   -7.991238|    0.824239|    0.012015|
|        5305|   -6.081653|   -7.995692|    0.824239|    0.012015|
|        5306|   -6.085183|   -8.000244|    0.824239|    0.012015|
|        5307|   -6.088280|   -8.004897|    0.824239|    0.012015|
|        5308|   -6.090989|   -8.009652|    0.824239|    0.012015|
|        5309|   -6.093359|   -8.014511|    0.824239|    0.012015|
|        5310|   -6.095448|   -8.019473|    0.824239|    0.012015|
|        5311|   -6.097313|   -8.024540|    0.824240|    0.012015|
|        5312|   -6.099016|   -8.029712|    0.824240|    0.012015|
|        5313|   -6.100617|   -8.034994|    0.824240|    0.012015|
|        5314|   -6.102173|   -8.040394|    0.824240|    0.012015|
|        5315|   -6.103738|   -8.045915|    0.824240|    0.012015|
|        5316|   -6.105363|   -8.051560|    0.824240|    0.012015|
|        5317|   -6.107093|   -8.057333|    0.824240|    0.012015|
|        5318|   -6.108965|   -8.063236|    0.824240|    0.012015|
|        5319|   -6.111013|   -8.069272|    0.824241|    0.012015|
|        5320|   -6.113263|   -8.075444|    0.824241|    0.012015|
|        5321|   -6.115731|   -8.081754|    0.824241|    0.012015|
|        5322|   -6.118432|   -8.088202|    0.824241|    0.012015|
|        5323|   -6.121368|   -8.094791|    0.824241|    0.012015|
|        5324|   -6.124539|   -8.101520|    0.824241|    0.012015|
|        5325|   -6.127935|   -8.108384|    0.824242|    0.012015|
|        5326|   -6.131542|   -8.115377|    0.824242|    0.012015|
|        5327|   -6.135338|   -8.122490|    0.824242|    0.012016|
|        5328|   -6.139297|   -8.129717|    0.824242|    0.012016|
|        5329|   -6.143386|   -8.137046|    0.824242|    0.012016|
|        5330|   -6.147570|   -8.144467|    0.824242|    0.012016|
|        5331|   -6.151810|   -8.151971|    0.824243|    0.012016|
|        5332|   -6.156062|   -8.159549|    0.824243|    0.012016|
|        5333|   -6.160283|   -8.167181|    0.824243|    0.012016|
|        5334|   -6.164431|   -8.174852|    0.824243|    0.012016|
|        5335|   -6.168461|   -8.182546|    0.824243|    0.012016|
|        5336|   -6.172335|   -8.190245|    0.824243|    0.012016|
|        5337|   -6.176018|   -8.197936|    0.824243|    0.012016|
|        5338|   -6.179480|   -8.205603|    0.824244|    0.012016|
|        5339|   -6.182697|   -8.213234|    0.824244|    0.012017|
|        5340|   -6.185655|   -8.220816|    0.824244|    0.012017|
|        5341|   -6.188346|   -8.228340|    0.824244|    0.012017|
|        5342|   -6.190771|   -8.235798|    0.824244|    0.012017|
|        5343|   -6.192941|   -8.243184|    0.824244|    0.012017|
|        5344|   -6.194875|   -8.250495|    0.824244|    0.012017|
|        5345|   -6.196596|   -8.257730|    0.824245|    0.012017|
|        5346|   -6.198136|   -8.264889|    0.824245|    0.012017|
|        5347|   -6.199531|   -8.271973|    0.824245|    0.012017|
|        5348|   -6.200823|   -8.278985|    0.824245|    0.012017|
|        5349|   -6.202052|   -8.285927|    0.824245|    0.012017|
|        5350|   -6.203265|   -8.292801|    0.824245|    0.012017|
|        5351|   -6.204506|   -8.299610|    0.824245|    0.012017|
|        5352|   -6.205819|   -8.306357|    0.824245|    0.012017|
|        5353|   -6.207244|   -8.313048|    0.824245|    0.012017|
|        5354|   -6.208822|   -8.319687|    0.824245|    0.012017|
|        5355|   -6.210588|   -8.326277|    0.824245|    0.012017|
|        5356|   -6.212573|   -8.332819|    0.824245|    0.012018|
|        5357|   -6.214806|   -8.339314|    0.824245|    0.012018|
|        5358|   -6.217308|   -8.345762|    0.824246|    0.012018|
|        5359|   -6.220098|   -8.352162|    0.824246|    0.012018|
|        5360|   -6.223190|   -8.358512|    0.824246|    0.012018|
|        5361|   -6.226592|   -8.364807|    0.824246|    0.012018|
|        5362|   -6.230308|   -8.371043|    0.824246|    0.012018|
|        5363|   -6.234334|   -8.377213|    0.824246|    0.012018|
|        5364|   -6.238666|   -8.383307|    0.824246|    0.012018|
|        5365|   -6.243291|   -8.389315|    0.824246|    0.012018|
|        5366|   -6.248193|   -8.395227|    0.824246|    0.012018|
|        5367|   -6.253351|   -8.401030|    0.824246|    0.012017|
|        5368|   -6.258741|   -8.406713|    0.824246|    0.012017|
|        5369|   -6.264328|   -8.412265|    0.824246|    0.012017|
|        5370|   -6.270077|   -8.417675|    0.824246|    0.012017|
|        5371|   -6.275948|   -8.422935|    0.824246|    0.012017|
|        5372|   -6.281899|   -8.428036|    0.824246|    0.012017|
|        5373|   -6.287883|   -8.432973|    0.824246|    0.012017|
|        5374|   -6.293851|   -8.437741|    0.824246|    0.012017|
|        5375|   -6.299755|   -8.442341|    0.824246|    0.012017|
|        5376|   -6.305543|   -8.446772|    0.824246|    0.012017|
|        5377|   -6.311166|   -8.451040|    0.824246|    0.012017|
|        5378|   -6.316577|   -8.455153|    0.824246|    0.012017|
|        5379|   -6.321733|   -8.459123|    0.824245|    0.012017|
|        5380|   -6.326593|   -8.462972|    0.824246|    0.012017|
|        5381|   -6.331124|   -8.466715|    0.824246|    0.012017|
|        5382|   -6.335296|   -8.470366|    0.824246|    0.012017|
|        5383|   -6.339091|   -8.473944|    0.824246|    0.012017|
|        5384|   -6.342494|   -8.477463|    0.824246|    0.012016|
|        5385|   -6.345501|   -8.480936|    0.824246|    0.012016|
|        5386|   -6.348114|   -8.484377|    0.824246|    0.012016|
|        5387|   -6.350340|   -8.487799|    0.824246|    0.012016|
|        5388|   -6.352196|   -8.491212|    0.824246|    0.012016|
|        5389|   -6.353701|   -8.494626|    0.824246|    0.012016|
|        5390|   -6.354880|   -8.498049|    0.824246|    0.012016|
|        5391|   -6.355758|   -8.501488|    0.824246|    0.012016|
|        5392|   -6.356366|   -8.504946|    0.824246|    0.012016|
|        5393|   -6.356732|   -8.508424|    0.824246|    0.012016|
|        5394|   -6.356886|   -8.511923|    0.824246|    0.012015|
|        5395|   -6.356854|   -8.515441|    0.824246|    0.012015|
|        5396|   -6.356663|   -8.518972|    0.824247|    0.012015|
|        5397|   -6.356337|   -8.522509|    0.824247|    0.012015|
|        5398|   -6.355897|   -8.526046|    0.824247|    0.012015|
|        5399|   -6.355361|   -8.529571|    0.824247|    0.012015|
|        5400|   -6.354744|   -8.533074|    0.824247|    0.012015|
|        5401|   -6.354061|   -8.536540|    0.824247|    0.012015|
|        5402|   -6.353321|   -8.539956|    0.824248|    0.012015|
|        5403|   -6.352534|   -8.543311|    0.824248|    0.012015|
|        5404|   -6.351706|   -8.546594|    0.824248|    0.012014|
|        5405|   -6.350841|   -8.549793|    0.824248|    0.012014|
|        5406|   -6.349945|   -8.552900|    0.824248|    0.012014|
|        5407|   -6.349020|   -8.555906|    0.824248|    0.012014|
|        5408|   -6.348068|   -8.558805|    0.824249|    0.012014|
|        5409|   -6.347091|   -8.561591|    0.824249|    0.012014|
|        5410|   -6.346092|   -8.564262|    0.824249|    0.012014|
|        5411|   -6.345072|   -8.566814|    0.824249|    0.012014|
|        5412|   -6.344034|   -8.569249|    0.824249|    0.012014|
|        5413|   -6.342981|   -8.571565|    0.824249|    0.012014|
|        5414|   -6.341914|   -8.573766|    0.824250|    0.012014|
|        5415|   -6.340839|   -8.575851|    0.824250|    0.012014|
|        5416|   -6.339760|   -8.577824|    0.824250|    0.012014|
|        5417|   -6.338681|   -8.579685|    0.824250|    0.012013|
|        5418|   -6.337608|   -8.581436|    0.824250|    0.012013|
|        5419|   -6.336549|   -8.583077|    0.824250|    0.012013|
|        5420|   -6.335509|   -8.584608|    0.824251|    0.012013|
|        5421|   -6.334498|   -8.586026|    0.824251|    0.012013|
|        5422|   -6.333524|   -8.587324|    0.824251|    0.012013|
|        5423|   -6.332596|   -8.588503|    0.824251|    0.012013|
|        5424|   -6.331724|   -8.589562|    0.824251|    0.012013|
|        5425|   -6.330920|   -8.590498|    0.824251|    0.012013|
|        5426|   -6.330196|   -8.591309|    0.824251|    0.012013|
|        5427|   -6.329564|   -8.591993|    0.824251|    0.012013|
|        5428|   -6.329037|   -8.592546|    0.824252|    0.012013|
|        5429|   -6.328628|   -8.592969|    0.824252|    0.012013|
|        5430|   -6.328353|   -8.593260|    0.824252|    0.012013|
|        5431|   -6.328225|   -8.593421|    0.824252|    0.012013|
|        5432|   -6.328258|   -8.593454|    0.824252|    0.012013|
|        5433|   -6.328467|   -8.593362|    0.824252|    0.012013|
|        5434|   -6.328866|   -8.593150|    0.824252|    0.012013|
|        5435|   -6.329469|   -8.592826|    0.824252|    0.012013|
|        5436|   -6.330289|   -8.592398|    0.824252|    0.012013|
|        5437|   -6.331339|   -8.591877|    0.824252|    0.012013|
|        5438|   -6.332629|   -8.591274|    0.824252|    0.012013|
|        5439|   -6.334170|   -8.590604|    0.824252|    0.012013|
|        5440|   -6.335971|   -8.589881|    0.824252|    0.012013|
|        5441|   -6.338038|   -8.589120|    0.824252|    0.012013|
|        5442|   -6.340376|   -8.588337|    0.824252|    0.012014|
|        5443|   -6.342987|   -8.587548|    0.824252|    0.012014|
|        5444|   -6.345872|   -8.586769|    0.824252|    0.012014|
|        5445|   -6.349029|   -8.586013|    0.824252|    0.012014|
|        5446|   -6.352452|   -8.585293|    0.824252|    0.012014|
|        5447|   -6.356133|   -8.584622|    0.824252|    0.012014|
|        5448|   -6.360060|   -8.584010|    0.824252|    0.012014|
|        5449|   -6.364218|   -8.583466|    0.824252|    0.012014|
|        5450|   -6.368590|   -8.582996|    0.824252|    0.012014|
|        5451|   -6.373152|   -8.582606|    0.824252|    0.012014|
|        5452|   -6.377880|   -8.582299|    0.824252|    0.012014|
|        5453|   -6.382743|   -8.582077|    0.824252|    0.012014|
|        5454|   -6.387711|   -8.581941|    0.824252|    0.012014|
|        5455|   -6.392745|   -8.581891|    0.824252|    0.012014|
|        5456|   -6.397809|   -8.581923|    0.824252|    0.012015|
|        5457|   -6.402860|   -8.582035|    0.824252|    0.012015|
|        5458|   -6.407854|   -8.582224|    0.824252|    0.012015|
|        5459|   -6.412748|   -8.582485|    0.824252|    0.012015|
|        5460|   -6.417495|   -8.582815|    0.824252|    0.012015|
|        5461|   -6.422051|   -8.583207|    0.824252|    0.012015|
|        5462|   -6.426373|   -8.583657|    0.824252|    0.012015|
|        5463|   -6.430419|   -8.584162|    0.824252|    0.012015|
|        5464|   -6.434152|   -8.584717|    0.824251|    0.012015|
|        5465|   -6.437538|   -8.585317|    0.824251|    0.012015|
|        5466|   -6.440550|   -8.585958|    0.824251|    0.012015|
|        5467|   -6.443167|   -8.586633|    0.824251|    0.012015|
|        5468|   -6.445375|   -8.587340|    0.824251|    0.012015|
|        5469|   -6.447165|   -8.588072|    0.824251|    0.012015|
|        5470|   -6.448540|   -8.588828|    0.824251|    0.012016|
|        5471|   -6.449507|   -8.589603|    0.824251|    0.012016|
|        5472|   -6.450081|   -8.590396|    0.824250|    0.012016|
|        5473|   -6.450284|   -8.591204|    0.824250|    0.012016|
|        5474|   -6.450142|   -8.592024|    0.824250|    0.012016|
|        5475|   -6.449687|   -8.592856|    0.824250|    0.012016|
|        5476|   -6.448954|   -8.593697|    0.824250|    0.012016|
|        5477|   -6.447981|   -8.594545|    0.824250|    0.012016|
|        5478|   -6.446809|   -8.595398|    0.824250|    0.012016|
|        5479|   -6.445477|   -8.596254|    0.824249|    0.012016|
|        5480|   -6.444025|   -8.597113|    0.824249|    0.012016|
|        5481|   -6.442494|   -8.597973|    0.824249|    0.012016|
|        5482|   -6.440920|   -8.598835|    0.824249|    0.012016|
|        5483|   -6.439340|   -8.599698|    0.824249|    0.012016|
|        5484|   -6.437789|   -8.600562|    0.824249|    0.012016|
|        5485|   -6.436296|   -8.601426|    0.824248|    0.012016|
|        5486|   -6.434891|   -8.602294|    0.824248|    0.012016|
|        5487|   -6.433600|   -8.603164|    0.824248|    0.012016|
|        5488|   -6.432445|   -8.604040|    0.824248|    0.012016|
|        5489|   -6.431447|   -8.604923|    0.824248|    0.012016|
|        5490|   -6.430623|   -8.605816|    0.824248|    0.012016|
|        5491|   -6.429988|   -8.606723|    0.824248|    0.012016|
|        5492|   -6.429555|   -8.607648|    0.824247|    0.012016|
|        5493|   -6.429333|   -8.608593|    0.824247|    0.012016|
|        5494|   -6.429332|   -8.609565|    0.824247|    0.012016|
|        5495|   -6.429556|   -8.610567|    0.824247|    0.012016|
|        5496|   -6.430010|   -8.611605|    0.824247|    0.012016|
|        5497|   -6.430697|   -8.612685|    0.824247|    0.012016|
|        5498|   -6.431618|   -8.613811|    0.824247|    0.012016|
|        5499|   -6.432772|   -8.614989|    0.824247|    0.012001|
+-----------------------------------------------------------------------+
|Fixed CL Mode (Finite Difference)       |Value                         |
+-----------------------------------------------------------------------+
|Delta CL / Delta AoA                    |0.24678                       |
|Delta CD / Delta CL                     |0.0184527                     |
|Delta CMz / Delta CL                    |0.0102735                     |
+-----------------------------------------------------------------------+
Writing Flow Meta-Data file: flow.meta

----------------------------- Solver Exit -------------------------------

Maximum number of iterations reached (ITER = 5500) before convergence.
+-----------------------------------------------------------------------+
|      Convergence Field     |     Value    |   Criterion  |  Converged |
+-----------------------------------------------------------------------+
|                    rms[Rho]|      -6.43277|         < -12|          No|
+-----------------------------------------------------------------------+
-------------------------------------------------------------------------

--------------------------- Finalizing Solver ---------------------------
Deleted CNumerics container.
Deleted CIntegration container.
Deleted CSolver container.
Deleted CIteration container.
Deleted CInterface container.
Deleted CGeometry container.
Deleted CFreeFormDefBox class.
Deleted CSurfaceMovement class.
Deleted CVolumetricMovement class.
Deleted CConfig container.
Deleted nInst container.
Deleted COutput class.
-------------------------------------------------------------------------

------------------------- Exit Success (SU2_CFD) ------------------------


-------------------------------------------------------------------------
|    ___ _   _ ___                                                      |
|   / __| | | |_  )   Release 8.0.0 "Harrier"                           |
|   \__ \ |_| |/ /                                                      |
|   |___/\___//___|   Suite (Solution Exporting Code)                   |
|                                                                       |
-------------------------------------------------------------------------
| SU2 Project Website: https://su2code.github.io                        |
|                                                                       |
| The SU2 Project is maintained by the SU2 Foundation                   |
| (http://su2foundation.org)                                            |
-------------------------------------------------------------------------
| Copyright 2012-2023, SU2 Contributors                                 |
|                                                                       |
| SU2 is free software; you can redistribute it and/or                  |
| modify it under the terms of the GNU Lesser General Public            |
| License as published by the Free Software Foundation; either          |
| version 2.1 of the License, or (at your option) any later version.    |
|                                                                       |
| SU2 is distributed in the hope that it will be useful,                |
| but WITHOUT ANY WARRANTY; without even the implied warranty of        |
| MERCHANTABILITY or FITNESS FOR A PARTICULAR PURPOSE. See the GNU      |
| Lesser General Public License for more details.                       |
|                                                                       |
| You should have received a copy of the GNU Lesser General Public      |
| License along with SU2. If not, see <http://www.gnu.org/licenses/>.   |
-------------------------------------------------------------------------

----------------- Physical Case Definition ( Zone 0 ) -------------------
Input mesh file name: mesh_RAE2822_turb_deform.su2

-------------------- Output Information ( Zone 0 ) ----------------------
The tabular file format is CSV (.csv).
Flow variables file name: flow.

------------- Config File Boundary Information ( Zone 0 ) ---------------
+-----------------------------------------------------------------------+
|                        Marker Type|                        Marker Name|
+-----------------------------------------------------------------------+
|                          Far-field|                           FARFIELD|
+-----------------------------------------------------------------------+
|                     Heat flux wall|                            AIRFOIL|
+-----------------------------------------------------------------------+
Two dimensional problem.
13937 grid points before partitioning.
22842 volume elements before partitioning.
2 surface markers.
192 boundary elements in index 0 (Marker = AIRFOIL).
40 boundary elements in index 1 (Marker = FARFIELD).
Executing the partitioning functions.
Building the graph adjacency structure.
Calling ParMETIS... graph partitioning complete (831 edge cuts).
Distributing ParMETIS coloring.
Rebalancing vertices.
Rebalancing volume element connectivity.
Rebalancing markers and surface elements.
14875 vertices including ghost points. 
23674 interior elements including halo cells. 
18780 triangles.
4894 quadrilaterals.
Establishing MPI communication patterns.
Identify vertices.
Storing a mapping from global to local point index.

------------------------- Solution Postprocessing -----------------------
Reading and storing the solution from restart_flow.
Volume output fields: COORDINATES, SOLUTION
  Info: Ignoring the following screen output fields:
  RMS_DENSITY, RMS_NU_TILDE, LIFT, DRAG
Screen output fields: INNER_ITER
  Info: Ignoring the following history output groups:
  RMS_RES, AERO_COEFF
History output group(s): ITER
Warning: No (valid) fields chosen for convergence monitoring. Convergence monitoring inactive.
Warning: No (valid) fields chosen for time convergence monitoring. Time convergence monitoring inactive.
|Paraview                           |flow.vtu                           |
|Paraview surface                   |surface_flow.vtu                   |
|CSV file                           |surface_flow.csv                   |

------------------------- Finalize Solver -------------------------
Deleted CGeometry container.
Deleted CSolver class.
Deleted CConfig container.
Deleted COutput class.

Completed in 0.015979 seconds on 6 cores.

------------------------- Exit Success (SU2_SOL) ------------------------

