
-------------------------------------------------------------------------
|    ___ _   _ ___                                                      |
|   / __| | | |_  )   Release 8.0.0 "Harrier"                           |
|   \__ \ |_| |/ /                                                      |
|   |___/\___//___|   Suite (Computational Fluid Dynamics Code)         |
|                                                                       |
-------------------------------------------------------------------------
| SU2 Project Website: https://su2code.github.io                        |
|                                                                       |
| The SU2 Project is maintained by the SU2 Foundation                   |
| (http://su2foundation.org)                                            |
-------------------------------------------------------------------------
| Copyright 2012-2023, SU2 Contributors                                 |
|                                                                       |
| SU2 is free software; you can redistribute it and/or                  |
| modify it under the terms of the GNU Lesser General Public            |
| License as published by the Free Software Foundation; either          |
| version 2.1 of the License, or (at your option) any later version.    |
|                                                                       |
| SU2 is distributed in the hope that it will be useful,                |
| but WITHOUT ANY WARRANTY; without even the implied warranty of        |
| MERCHANTABILITY or FITNESS FOR A PARTICULAR PURPOSE. See the GNU      |
| Lesser General Public License for more details.                       |
|                                                                       |
| You should have received a copy of the GNU Lesser General Public      |
| License along with SU2. If not, see <http://www.gnu.org/licenses/>.   |
-------------------------------------------------------------------------

Parsing config file for zone 0

----------------- Physical Case Definition ( Zone 0 ) -------------------
Compressible RANS equations.
Turbulence model: Spalart-Allmaras-noft2
Hybrid RANS/LES: No Hybrid RANS/LES
Mach number: 0.734.
Angle of attack (AoA): 2.31 deg, and angle of sideslip (AoS): 0 deg.
Reynolds number: 6.5e+06. Reference length 1.
Fixed CL mode, target value: 0.824.
Reading and writing binary SU2 native restart files.
Read flow solution from: solution_flow.dat.
Dimensional simulation.
The reference area is 1 m^2.
The semi-span will be computed using the max y(3D) value.
The reference length is 1 m.
Reference origin for moment evaluation is (0.25, 0, 0).
Surface(s) where the force coefficients are evaluated: AIRFOIL.

Surface(s) plotted in the output file: AIRFOIL.
Surface(s) affected by the design variables: AIRFOIL.
Input mesh file name: mesh_RAE2822_turb_deform.su2

--------------- Space Numerical Integration ( Zone 0 ) ------------------
Jameson-Schmidt-Turkel scheme (2nd order in space) for the flow inviscid terms.
JST viscous coefficients (2nd & 4th): 0.5, 0.02.
The method includes a grid stretching correction (p = 0.3).
Scalar upwind solver for the turbulence model.
First order integration in space.
Average of gradients with correction (viscous flow terms).
Average of gradients with correction (viscous turbulence terms).
Gradient for viscous and source terms: inverse-distance weighted Least-Squares.

--------------- Time Numerical Integration  ( Zone 0 ) ------------------
Local time stepping (steady state simulation).
Euler implicit method for the flow equations.
FGMRES is used for solving the linear system.
Using a ILU(0) preconditioning.
Convergence criteria of the linear solver: 1e-06.
Max number of linear iterations: 10.
No CFL adaptation.
Courant-Friedrichs-Lewy number:       10
Euler implicit time integration for the turbulence model.

------------------ Convergence Criteria  ( Zone 0 ) ---------------------
Maximum number of solver subiterations: 5500.
Begin convergence monitoring at iteration 10.
Residual minimum value: 1e-12.
Cauchy series min. value: 1e-06.
Number of Cauchy elements: 100.
Begin windowed time average at iteration 0.

-------------------- Output Information ( Zone 0 ) ----------------------
File writing frequency: 
+------------------------------------+
|                     File| Frequency|
+------------------------------------+
|                  RESTART|     10000|
|                 PARAVIEW|     10000|
|         SURFACE_PARAVIEW|     10000|
|              SURFACE_CSV|     10000|
+------------------------------------+
Writing the convergence history file every 1 inner iterations.
Writing the screen convergence history every 1 inner iterations.
The tabular file format is CSV (.csv).
Convergence history file name: history_direct.
Forces breakdown file name: forces_breakdown.dat.
Surface file name: surface_flow.
Volume file name: flow.
Restart file name: restart_flow.dat.

------------- Config File Boundary Information ( Zone 0 ) ---------------
+-----------------------------------------------------------------------+
|                        Marker Type|                        Marker Name|
+-----------------------------------------------------------------------+
|                          Far-field|                           FARFIELD|
+-----------------------------------------------------------------------+
|                     Heat flux wall|                            AIRFOIL|
+-----------------------------------------------------------------------+

-------------------- Output Preprocessing ( Zone 0 ) --------------------

WARNING: SURFACE_PRESSURE_DROP can only be computed for at least 2 surfaces (outlet, inlet, ...)

Screen output fields: INNER_ITER, RMS_DENSITY, RMS_NU_TILDE, LIFT, DRAG
History output group(s): ITER, RMS_RES, AERO_COEFF
Convergence field(s): RMS_DENSITY
Warning: No (valid) fields chosen for time convergence monitoring. Time convergence monitoring inactive.
Volume output fields: COORDINATES, SOLUTION, PRIMITIVE

------------------- Geometry Preprocessing ( Zone 0 ) -------------------
Two dimensional problem.
13937 grid points before partitioning.
22842 volume elements before partitioning.
2 surface markers.
192 boundary elements in index 0 (Marker = AIRFOIL).
40 boundary elements in index 1 (Marker = FARFIELD).
Executing the partitioning functions.
Building the graph adjacency structure.
Calling ParMETIS... graph partitioning complete (831 edge cuts).
Distributing ParMETIS coloring.
Rebalancing vertices.
Rebalancing volume element connectivity.
Rebalancing markers and surface elements.
14875 vertices including ghost points. 
23674 interior elements including halo cells. 
18780 triangles.
4894 quadrilaterals.
Establishing MPI communication patterns.
Setting point connectivity.
Renumbering points (Reverse Cuthill McKee Ordering).
Recomputing point connectivity.
Setting element connectivity.
Checking the numerical grid orientation.
All volume elements are correctly orientend.
All surface elements are correctly orientend.
Identifying edges and vertices.
Setting the control volume structure.
Area of the computational grid: 32209.9.
Searching for the closest normal neighbors to the surfaces.
Storing a mapping from global to local point index.
Compute the surface curvature.
Max K: 185.217. Mean K: 8.0218. Standard deviation K: 25.0837.
Checking for periodicity.
Computing mesh quality statistics for the dual control volumes.
+--------------------------------------------------------------+
|           Mesh Quality Metric|        Minimum|        Maximum|
+--------------------------------------------------------------+
|    Orthogonality Angle (deg.)|        74.9316|        89.9999|
|     CV Face Area Aspect Ratio|         1.0051|        3358.28|
|           CV Sub-Volume Ratio|        1.00047|        1217.38|
+--------------------------------------------------------------+
Finding max control volume width.
Communicating number of neighbors.
Wetted area = 2.02154 m.
Area projection in the x-plane = 0.125898 m, y-plane = 0.995873 m.
Max. coordinate in the x-direction = 1 m, y-direction = 0.0620234 m.
Min. coordinate in the x-direction = 0 m, y-direction = -0.0606039 m.
Computing wall distances.

-------------------- Solver Preprocessing ( Zone 0 ) --------------------
WARNING: AoA in the solution file (2.78265 deg.) +
         AoA offset in mesh file (0 deg.) = 2.78265 deg.
WARNING: SU2 will use the dCD/dCL provided in the direct solution file: 0.0188177.
WARNING: SU2 will use the dCMz/dCL provided in the direct solution file: 0.0170833.
Viscous flow: Computing pressure using the ideal gas law
based on the free-stream temperature and a density computed
from the Reynolds number.
Force coefficients computed using free-stream values.

-- Models:
+------------------------------------------------------------------------------+
|          Viscosity Model|        Conductivity Model|              Fluid Model|
+------------------------------------------------------------------------------+
|               SUTHERLAND|          CONSTANT_PRANDTL|             STANDARD_AIR|
+------------------------------------------------------------------------------+
-- Fluid properties:
+------------------------------------------------------------------------------+
|                  Name|    Dim. value|    Ref. value|      Unit|Non-dim. value|
+------------------------------------------------------------------------------+
|        Ref. Viscosity|     1.716e-05|             1|   N.s/m^2|     1.716e-05|
|      Sutherland Temp.|        273.15|             1|         K|        273.15|
|     Sutherland Const.|         110.4|             1|         K|         110.4|
+------------------------------------------------------------------------------+
|        Prandtl (Lam.)|             -|             -|         -|          0.71|
|       Prandtl (Turb.)|             -|             -|         -|           0.9|
+------------------------------------------------------------------------------+
|          Gas Constant|       287.058|             1|  N.m/kg.K|       287.058|
|      Spec. Heat Ratio|             -|             -|         -|           1.4|
+------------------------------------------------------------------------------+
-- Initial and free-stream conditions:
+------------------------------------------------------------------------------+
|                  Name|    Dim. value|    Ref. value|      Unit|Non-dim. value|
+------------------------------------------------------------------------------+
|       Static Pressure|         38515|             1|        Pa|         38515|
|               Density|      0.465631|             1|    kg/m^3|      0.465631|
|           Temperature|        288.15|             1|         K|        288.15|
|          Total Energy|        237984|             1|   m^2/s^2|        237984|
|            Velocity-X|       249.484|             1|       m/s|       249.484|
|            Velocity-Y|        12.126|             1|       m/s|        12.126|
|    Velocity Magnitude|       249.778|             1|       m/s|       249.778|
+------------------------------------------------------------------------------+
|             Viscosity|    1.7893e-05|             1|   N.s/m^2|    1.7893e-05|
|          Conductivity|             -|             1|   W/m^2.K|             -|
|     Turb. Kin. Energy|       233.959|             1|   m^2/s^2|       233.959|
|     Spec. Dissipation|        608834|             1|       1/s|        608834|
+------------------------------------------------------------------------------+
|           Mach Number|             -|             -|         -|         0.734|
|       Reynolds Number|             -|             -|         -|       6.5e+06|
+------------------------------------------------------------------------------+
Initialize Jacobian structure (Navier-Stokes). MG level: 0.
Initialize Jacobian structure (SA model).

------------------- Numerics Preprocessing ( Zone 0 ) -------------------

----------------- Integration Preprocessing ( Zone 0 ) ------------------

------------------- Iteration Preprocessing ( Zone 0 ) ------------------
Euler/Navier-Stokes/RANS fluid iteration.

------------------------------ Begin Solver -----------------------------

Simulation Run using the Single-zone Driver
WARNING: SU2 was not compiled for an AVX-capable architecture. Performance could be better,
         see https://su2code.github.io/docs_v7/Build-SU2-Linux-MacOS/#compiler-optimizations
+----------------------------------------------------------------+
|  Inner_Iter|    rms[Rho]|     rms[nu]|          CL|          CD|
+----------------------------------------------------------------+
|           0|   -5.207380|   -6.545047|    0.824049|    0.011995|
|           1|   -5.264278|   -6.648216|    0.824077|    0.012002|
|           2|   -5.324803|   -6.769492|    0.824087|    0.012007|
|           3|   -5.370288|   -6.905956|    0.824087|    0.012009|
|           4|   -5.401324|   -7.050321|    0.824082|    0.012009|
|           5|   -5.421239|   -7.173843|    0.824077|    0.012009|
|           6|   -5.431980|   -7.227703|    0.824075|    0.012008|
|           7|   -5.434923|   -7.213094|    0.824075|    0.012009|
|           8|   -5.431530|   -7.177415|    0.824077|    0.012009|
|           9|   -5.423271|   -7.145891|    0.824080|    0.012011|
|          10|   -5.411597|   -7.122550|    0.824085|    0.012013|
|          11|   -5.398081|   -7.105928|    0.824090|    0.012016|
|          12|   -5.384329|   -7.094963|    0.824095|    0.012019|
|          13|   -5.371651|   -7.089790|    0.824099|    0.012022|
|          14|   -5.360777|   -7.090956|    0.824103|    0.012026|
|          15|   -5.351819|   -7.098514|    0.824106|    0.012030|
|          16|   -5.344452|   -7.111435|    0.824107|    0.012033|
|          17|   -5.338205|   -7.127330|    0.824107|    0.012037|
|          18|   -5.332722|   -7.142552|    0.824106|    0.012041|
|          19|   -5.327898|   -7.152952|    0.824103|    0.012044|
|          20|   -5.323863|   -7.155387|    0.824099|    0.012048|
|          21|   -5.320849|   -7.149154|    0.824093|    0.012051|
|          22|   -5.319041|   -7.136093|    0.824087|    0.012053|
|          23|   -5.318479|   -7.119284|    0.824080|    0.012056|
|          24|   -5.319031|   -7.101551|    0.824073|    0.012058|
|          25|   -5.320431|   -7.084736|    0.824065|    0.012059|
|          26|   -5.322345|   -7.069701|    0.824057|    0.012061|
|          27|   -5.324442|   -7.056662|    0.824050|    0.012061|
|          28|   -5.326442|   -7.045544|    0.824043|    0.012062|
|          29|   -5.328138|   -7.036254|    0.824036|    0.012062|
|          30|   -5.329395|   -7.028797|    0.824029|    0.012062|
|          31|   -5.330135|   -7.023294|    0.824023|    0.012062|
|          32|   -5.330320|   -7.019921|    0.824018|    0.012062|
|          33|   -5.329940|   -7.018832|    0.824012|    0.012061|
|          34|   -5.329007|   -7.020091|    0.824007|    0.012060|
|          35|   -5.327554|   -7.023640|    0.824002|    0.012059|
|          36|   -5.325634|   -7.029287|    0.823997|    0.012057|
|          37|   -5.323320|   -7.036723|    0.823993|    0.012056|
|          38|   -5.320692|   -7.045551|    0.823988|    0.012054|
|          39|   -5.317833|   -7.055310|    0.823983|    0.012053|
|          40|   -5.314816|   -7.065519|    0.823978|    0.012051|
|          41|   -5.311701|   -7.075699|    0.823972|    0.012049|
|          42|   -5.308532|   -7.085407|    0.823967|    0.012048|
|          43|   -5.305336|   -7.094256|    0.823962|    0.012046|
|          44|   -5.302129|   -7.101939|    0.823956|    0.012044|
|          45|   -5.298910|   -7.108246|    0.823951|    0.012042|
|          46|   -5.295668|   -7.113079|    0.823946|    0.012040|
|          47|   -5.292378|   -7.116463|    0.823941|    0.012039|
|          48|   -5.289000|   -7.118539|    0.823936|    0.012037|
|          49|   -5.285483|   -7.119540|    0.823932|    0.012035|
|          50|   -5.281770|   -7.119763|    0.823928|    0.012033|
|          51|   -5.277811|   -7.119525|    0.823925|    0.012031|
|          52|   -5.273562|   -7.119126|    0.823922|    0.012030|
|          53|   -5.269004|   -7.118820|    0.823920|    0.012028|
|          54|   -5.264139|   -7.118796|    0.823919|    0.012026|
|          55|   -5.258995|   -7.119174|    0.823919|    0.012025|
|          56|   -5.253623|   -7.120010|    0.823920|    0.012023|
|          57|   -5.248088|   -7.121311|    0.823921|    0.012021|
|          58|   -5.242462|   -7.123054|    0.823924|    0.012020|
|          59|   -5.236816|   -7.125191|    0.823927|    0.012018|
|          60|   -5.231217|   -7.127666|    0.823930|    0.012017|
|          61|   -5.225720|   -7.130411|    0.823935|    0.012015|
|          62|   -5.220365|   -7.133342|    0.823940|    0.012014|
|          63|   -5.215181|   -7.136351|    0.823945|    0.012013|
|          64|   -5.210186|   -7.139307|    0.823951|    0.012011|
|          65|   -5.205389|   -7.142061|    0.823956|    0.012010|
|          66|   -5.200790|   -7.144463|    0.823962|    0.012009|
|          67|   -5.196389|   -7.146388|    0.823968|    0.012008|
|          68|   -5.192184|   -7.147759|    0.823973|    0.012007|
|          69|   -5.188171|   -7.148575|    0.823979|    0.012006|
|          70|   -5.184354|   -7.148921|    0.823984|    0.012005|
|          71|   -5.180735|   -7.148949|    0.823989|    0.012004|
|          72|   -5.177320|   -7.148864|    0.823994|    0.012003|
|          73|   -5.174118|   -7.148889|    0.823998|    0.012003|
|          74|   -5.171134|   -7.149226|    0.824002|    0.012002|
|          75|   -5.168373|   -7.150036|    0.824006|    0.012001|
|          76|   -5.165835|   -7.151411|    0.824009|    0.012001|
|          77|   -5.163515|   -7.153376|    0.824012|    0.012000|
|          78|   -5.161401|   -7.155887|    0.824014|    0.012000|
|          79|   -5.159475|   -7.158850|    0.824017|    0.011999|
|          80|   -5.157714|   -7.162142|    0.824019|    0.011999|
|          81|   -5.156091|   -7.165628|    0.824021|    0.011998|
|          82|   -5.154582|   -7.169187|    0.824023|    0.011998|
|          83|   -5.153162|   -7.172731|    0.824025|    0.011998|
|          84|   -5.151813|   -7.176206|    0.824026|    0.011997|
|          85|   -5.150525|   -7.179600|    0.824028|    0.011997|
|          86|   -5.149296|   -7.182935|    0.824029|    0.011997|
|          87|   -5.148133|   -7.186253|    0.824030|    0.011997|
|          88|   -5.147055|   -7.189608|    0.824031|    0.011997|
|          89|   -5.146086|   -7.193049|    0.824033|    0.011997|
|          90|   -5.145255|   -7.196612|    0.824034|    0.011997|
|          91|   -5.144599|   -7.200317|    0.824035|    0.011997|
|          92|   -5.144153|   -7.204163|    0.824036|    0.011997|
|          93|   -5.143952|   -7.208131|    0.824038|    0.011997|
|          94|   -5.144029|   -7.212190|    0.824039|    0.011997|
|          95|   -5.144411|   -7.216297|    0.824040|    0.011998|
|          96|   -5.145122|   -7.220409|    0.824042|    0.011998|
|          97|   -5.146174|   -7.224482|    0.824043|    0.011999|
|          98|   -5.147577|   -7.228478|    0.824045|    0.011999|
|          99|   -5.149325|   -7.232362|    0.824047|    0.012000|
|         100|   -5.151407|   -7.236111|    0.824049|    0.012000|
|         101|   -5.153798|   -7.239706|    0.824051|    0.011997|
+-----------------------------------------------------------------------+
|Fixed CL Mode                           |Value                         |
+-----------------------------------------------------------------------+
|Current CL                              |0.824051                      |
|Target CL                               |0.824                         |
|Previous AOA                            |2.78265                       |
|Changed AoA by                          |-0.000242659                  |
+-----------------------------------------------------------------------+
+----------------------------------------------------------------+
|  Inner_Iter|    rms[Rho]|     rms[nu]|          CL|          CD|
+----------------------------------------------------------------+
|         102|   -3.807622|   -7.232893|    0.824053|    0.011998|
|         103|   -4.186417|   -7.241099|    0.824055|    0.011999|
|         104|   -4.417198|   -7.245687|    0.824057|    0.012000|
|         105|   -4.491295|   -7.249453|    0.824059|    0.012001|
|         106|   -4.544540|   -7.252821|    0.824062|    0.012002|
|         107|   -4.613209|   -7.255892|    0.824064|    0.012003|
|         108|   -4.696760|   -7.258710|    0.824066|    0.012004|
|         109|   -4.782809|   -7.261302|    0.824069|    0.012005|
|         110|   -4.856009|   -7.263690|    0.824071|    0.012006|
|         111|   -4.908579|   -7.265877|    0.824073|    0.012007|
|         112|   -4.941648|   -7.267869|    0.824075|    0.012008|
|         113|   -4.958726|   -7.269676|    0.824077|    0.012009|
|         114|   -4.963859|   -7.271312|    0.824079|    0.012010|
|         115|   -4.962809|   -7.272787|    0.824080|    0.012011|
|         116|   -4.961540|   -7.274105|    0.824081|    0.012012|
|         117|   -4.963743|   -7.275262|    0.824083|    0.012013|
|         118|   -4.970050|   -7.276261|    0.824084|    0.012014|
|         119|   -4.978821|   -7.277106|    0.824085|    0.012015|
|         120|   -4.987611|   -7.277808|    0.824085|    0.012016|
|         121|   -4.994615|   -7.278384|    0.824086|    0.012016|
|         122|   -4.999391|   -7.278849|    0.824086|    0.012017|
|         123|   -5.002574|   -7.279218|    0.824086|    0.012018|
|         124|   -5.005070|   -7.279510|    0.824086|    0.012019|
|         125|   -5.007479|   -7.279746|    0.824086|    0.012019|
|         126|   -5.009977|   -7.279952|    0.824086|    0.012020|
|         127|   -5.012496|   -7.280155|    0.824086|    0.012021|
|         128|   -5.014917|   -7.280383|    0.824085|    0.012021|
|         129|   -5.017156|   -7.280663|    0.824085|    0.012022|
|         130|   -5.019171|   -7.281020|    0.824085|    0.012022|
|         131|   -5.020957|   -7.281475|    0.824085|    0.012023|
|         132|   -5.022556|   -7.282047|    0.824084|    0.012023|
|         133|   -5.024074|   -7.282752|    0.824084|    0.012024|
|         134|   -5.025668|   -7.283598|    0.824084|    0.012024|
|         135|   -5.027507|   -7.284589|    0.824083|    0.012024|
|         136|   -5.029721|   -7.285724|    0.824083|    0.012025|
|         137|   -5.032362|   -7.286999|    0.824083|    0.012025|
|         138|   -5.035389|   -7.288404|    0.824083|    0.012025|
|         139|   -5.038674|   -7.289934|    0.824083|    0.012026|
|         140|   -5.042021|   -7.291581|    0.824083|    0.012026|
|         141|   -5.045201|   -7.293339|    0.824082|    0.012026|
|         142|   -5.048005|   -7.295204|    0.824082|    0.012027|
|         143|   -5.050281|   -7.297173|    0.824082|    0.012027|
|         144|   -5.051976|   -7.299246|    0.824082|    0.012027|
|         145|   -5.053136|   -7.301428|    0.824082|    0.012028|
|         146|   -5.053890|   -7.303725|    0.824081|    0.012028|
|         147|   -5.054404|   -7.306145|    0.824081|    0.012028|
|         148|   -5.054837|   -7.308701|    0.824080|    0.012028|
|         149|   -5.055305|   -7.311407|    0.824079|    0.012029|
|         150|   -5.055859|   -7.314277|    0.824078|    0.012029|
|         151|   -5.056492|   -7.317326|    0.824077|    0.012029|
|         152|   -5.057146|   -7.320570|    0.824076|    0.012029|
|         153|   -5.057742|   -7.324016|    0.824075|    0.012029|
|         154|   -5.058200|   -7.327675|    0.824073|    0.012029|
|         155|   -5.058456|   -7.331553|    0.824071|    0.012029|
|         156|   -5.058477|   -7.335652|    0.824070|    0.012029|
|         157|   -5.058260|   -7.339969|    0.824067|    0.012029|
|         158|   -5.057828|   -7.344497|    0.824065|    0.012028|
|         159|   -5.057219|   -7.349224|    0.824063|    0.012028|
|         160|   -5.056482|   -7.354132|    0.824060|    0.012028|
|         161|   -5.055661|   -7.359199|    0.824058|    0.012028|
|         162|   -5.054798|   -7.364399|    0.824055|    0.012027|
|         163|   -5.053926|   -7.369700|    0.824052|    0.012027|
|         164|   -5.053071|   -7.375068|    0.824049|    0.012027|
|         165|   -5.052255|   -7.380468|    0.824046|    0.012026|
|         166|   -5.051494|   -7.385864|    0.824043|    0.012026|
|         167|   -5.050803|   -7.391218|    0.824040|    0.012025|
|         168|   -5.050197|   -7.396498|    0.824037|    0.012025|
|         169|   -5.049685|   -7.401674|    0.824035|    0.012024|
|         170|   -5.049276|   -7.406718|    0.824032|    0.012024|
|         171|   -5.048974|   -7.411612|    0.824029|    0.012023|
|         172|   -5.048777|   -7.416342|    0.824027|    0.012023|
|         173|   -5.048682|   -7.420900|    0.824024|    0.012022|
|         174|   -5.048680|   -7.425289|    0.824022|    0.012021|
|         175|   -5.048758|   -7.429515|    0.824020|    0.012021|
|         176|   -5.048905|   -7.433594|    0.824018|    0.012020|
|         177|   -5.049108|   -7.437543|    0.824016|    0.012020|
|         178|   -5.049355|   -7.441386|    0.824015|    0.012019|
|         179|   -5.049638|   -7.445148|    0.824014|    0.012019|
|         180|   -5.049953|   -7.448856|    0.824013|    0.012018|
|         181|   -5.050302|   -7.452538|    0.824012|    0.012017|
|         182|   -5.050692|   -7.456220|    0.824011|    0.012017|
|         183|   -5.051137|   -7.459928|    0.824011|    0.012016|
|         184|   -5.051655|   -7.463686|    0.824011|    0.012016|
|         185|   -5.052274|   -7.467515|    0.824011|    0.012015|
|         186|   -5.053021|   -7.471434|    0.824011|    0.012015|
|         187|   -5.053933|   -7.475457|    0.824011|    0.012014|
|         188|   -5.055045|   -7.479595|    0.824012|    0.012014|
|         189|   -5.056397|   -7.483859|    0.824013|    0.012013|
|         190|   -5.058024|   -7.488251|    0.824013|    0.012013|
|         191|   -5.059964|   -7.492775|    0.824015|    0.012012|
|         192|   -5.062248|   -7.497429|    0.824016|    0.012012|
|         193|   -5.064903|   -7.502210|    0.824017|    0.012011|
|         194|   -5.067949|   -7.507112|    0.824018|    0.012011|
|         195|   -5.071397|   -7.512130|    0.824020|    0.012010|
|         196|   -5.075248|   -7.517256|    0.824021|    0.012010|
|         197|   -5.079494|   -7.522480|    0.824023|    0.012009|
|         198|   -5.084113|   -7.527793|    0.824025|    0.012009|
|         199|   -5.089071|   -7.533182|    0.824027|    0.012009|
|         200|   -5.094322|   -7.538633|    0.824028|    0.012008|
|         201|   -5.099805|   -7.544138|    0.824030|    0.012006|
+-----------------------------------------------------------------------+
|Fixed CL Mode                           |Value                         |
+-----------------------------------------------------------------------+
|Current CL                              |0.82403                       |
|Target CL                               |0.824                         |
|Previous AOA                            |2.78241                       |
|Changed AoA by                          |-0.000141983                  |
+-----------------------------------------------------------------------+
+----------------------------------------------------------------+
|  Inner_Iter|    rms[Rho]|     rms[nu]|          CL|          CD|
+----------------------------------------------------------------+
|         202|   -4.039688|   -7.534773|    0.824032|    0.012005|
|         203|   -4.415685|   -7.546911|    0.824034|    0.012005|
|         204|   -4.636393|   -7.554365|    0.824036|    0.012005|
|         205|   -4.700625|   -7.561043|    0.824038|    0.012004|
|         206|   -4.745035|   -7.567546|    0.824040|    0.012004|
|         207|   -4.802397|   -7.574004|    0.824042|    0.012004|
|         208|   -4.869744|   -7.580454|    0.824043|    0.012003|
|         209|   -4.934668|   -7.586911|    0.824045|    0.012003|
|         210|   -4.985826|   -7.593368|    0.824047|    0.012003|
|         211|   -5.020629|   -7.599808|    0.824049|    0.012003|
|         212|   -5.042625|   -7.606215|    0.824050|    0.012002|
|         213|   -5.055460|   -7.612593|    0.824052|    0.012002|
|         214|   -5.061816|   -7.618966|    0.824054|    0.012002|
|         215|   -5.064643|   -7.625360|    0.824055|    0.012002|
|         216|   -5.066987|   -7.631795|    0.824057|    0.012002|
|         217|   -5.070887|   -7.638285|    0.824058|    0.012002|
|         218|   -5.076823|   -7.644845|    0.824060|    0.012002|
|         219|   -5.084046|   -7.651494|    0.824061|    0.012002|
|         220|   -5.091414|   -7.658253|    0.824062|    0.012002|
|         221|   -5.098170|   -7.665135|    0.824063|    0.012002|
|         222|   -5.104256|   -7.672146|    0.824064|    0.012002|
|         223|   -5.110095|   -7.679283|    0.824065|    0.012002|
|         224|   -5.116164|   -7.686536|    0.824066|    0.012003|
|         225|   -5.122710|   -7.693893|    0.824067|    0.012003|
|         226|   -5.129714|   -7.701340|    0.824067|    0.012003|
|         227|   -5.137017|   -7.708862|    0.824068|    0.012003|
|         228|   -5.144461|   -7.716446|    0.824068|    0.012004|
|         229|   -5.151958|   -7.724081|    0.824069|    0.012004|
|         230|   -5.159506|   -7.731757|    0.824069|    0.012004|
|         231|   -5.167176|   -7.739466|    0.824069|    0.012004|
|         232|   -5.175099|   -7.747197|    0.824070|    0.012005|
|         233|   -5.183454|   -7.754937|    0.824070|    0.012005|
|         234|   -5.192447|   -7.762678|    0.824070|    0.012006|
|         235|   -5.202269|   -7.770404|    0.824070|    0.012006|
|         236|   -5.213052|   -7.778100|    0.824070|    0.012006|
|         237|   -5.224842|   -7.785751|    0.824069|    0.012007|
|         238|   -5.237577|   -7.793336|    0.824069|    0.012007|
|         239|   -5.251085|   -7.800835|    0.824069|    0.012008|
|         240|   -5.265097|   -7.808228|    0.824069|    0.012008|
|         241|   -5.279272|   -7.815491|    0.824068|    0.012009|
|         242|   -5.293237|   -7.822601|    0.824068|    0.012009|
|         243|   -5.306648|   -7.829535|    0.824067|    0.012009|
|         244|   -5.319242|   -7.836269|    0.824067|    0.012010|
|         245|   -5.330877|   -7.842781|    0.824066|    0.012010|
|         246|   -5.341541|   -7.849048|    0.824066|    0.012011|
|         247|   -5.351315|   -7.855047|    0.824065|    0.012011|
|         248|   -5.360328|   -7.860755|    0.824065|    0.012012|
|         249|   -5.368697|   -7.866154|    0.824064|    0.012012|
|         250|   -5.376487|   -7.871226|    0.824063|    0.012012|
|         251|   -5.383699|   -7.875964|    0.824063|    0.012013|
|         252|   -5.390277|   -7.880363|    0.824062|    0.012013|
|         253|   -5.396134|   -7.884433|    0.824061|    0.012014|
|         254|   -5.401194|   -7.888185|    0.824060|    0.012014|
|         255|   -5.405415|   -7.891646|    0.824059|    0.012014|
|         256|   -5.408811|   -7.894853|    0.824058|    0.012015|
|         257|   -5.411456|   -7.897853|    0.824057|    0.012015|
|         258|   -5.413468|   -7.900706|    0.824056|    0.012015|
|         259|   -5.414995|   -7.903476|    0.824054|    0.012016|
|         260|   -5.416190|   -7.906237|    0.824053|    0.012016|
|         261|   -5.417195|   -7.909065|    0.824052|    0.012016|
|         262|   -5.418130|   -7.912040|    0.824050|    0.012016|
|         263|   -5.419086|   -7.915241|    0.824049|    0.012017|
|         264|   -5.420135|   -7.918742|    0.824047|    0.012017|
|         265|   -5.421326|   -7.922611|    0.824045|    0.012017|
|         266|   -5.422696|   -7.926906|    0.824044|    0.012017|
|         267|   -5.424274|   -7.931676|    0.824042|    0.012017|
|         268|   -5.426083|   -7.936951|    0.824040|    0.012017|
|         269|   -5.428142|   -7.942746|    0.824038|    0.012017|
|         270|   -5.430469|   -7.949052|    0.824036|    0.012017|
|         271|   -5.433075|   -7.955835|    0.824034|    0.012017|
|         272|   -5.435969|   -7.963028|    0.824032|    0.012017|
|         273|   -5.439154|   -7.970533|    0.824030|    0.012017|
|         274|   -5.442629|   -7.978218|    0.824028|    0.012017|
|         275|   -5.446387|   -7.985910|    0.824026|    0.012017|
|         276|   -5.450417|   -7.993400|    0.824024|    0.012017|
|         277|   -5.454706|   -8.000443|    0.824022|    0.012017|
|         278|   -5.459237|   -8.006771|    0.824020|    0.012017|
|         279|   -5.463994|   -8.012105|    0.824018|    0.012017|
|         280|   -5.468955|   -8.016176|    0.824017|    0.012017|
|         281|   -5.474103|   -8.018756|    0.824015|    0.012016|
|         282|   -5.479414|   -8.019676|    0.824013|    0.012016|
|         283|   -5.484868|   -8.018848|    0.824012|    0.012016|
|         284|   -5.490442|   -8.016283|    0.824010|    0.012016|
|         285|   -5.496111|   -8.012082|    0.824009|    0.012015|
|         286|   -5.501853|   -8.006434|    0.824007|    0.012015|
|         287|   -5.507642|   -7.999590|    0.824006|    0.012015|
|         288|   -5.513452|   -7.991843|    0.824005|    0.012015|
|         289|   -5.519258|   -7.983506|    0.824004|    0.012014|
|         290|   -5.525035|   -7.974886|    0.824003|    0.012014|
|         291|   -5.530756|   -7.966276|    0.824003|    0.012014|
|         292|   -5.536399|   -7.957934|    0.824002|    0.012013|
|         293|   -5.541940|   -7.950089|    0.824001|    0.012013|
|         294|   -5.547360|   -7.942933|    0.824001|    0.012013|
|         295|   -5.552641|   -7.936623|    0.824001|    0.012012|
|         296|   -5.557768|   -7.931284|    0.824000|    0.012012|
|         297|   -5.562730|   -7.927012|    0.824000|    0.012012|
|         298|   -5.567520|   -7.923880|    0.824000|    0.012011|
|         299|   -5.572133|   -7.921935|    0.824000|    0.012011|
|         300|   -5.576569|   -7.921207|    0.824001|    0.012011|
|         301|   -5.580831|   -7.921704|    0.824001|    0.012010|
+-----------------------------------------------------------------------+
|Fixed CL Mode                           |Value                         |
+-----------------------------------------------------------------------+
|Current CL                              |0.824001                      |
|Target CL                               |0.824                         |
|Previous AOA                            |2.78226                       |
|Changed AoA by                          |-2.82317e-06                  |
+-----------------------------------------------------------------------+
+----------------------------------------------------------------+
|  Inner_Iter|    rms[Rho]|     rms[nu]|          CL|          CD|
+----------------------------------------------------------------+
|         302|   -5.497900|   -7.923314|    0.824001|    0.012010|
|         303|   -5.565540|   -7.926251|    0.824002|    0.012009|
|         304|   -5.578031|   -7.930330|    0.824002|    0.012009|
|         305|   -5.582798|   -7.935502|    0.824002|    0.012009|
|         306|   -5.588028|   -7.941692|    0.824003|    0.012008|
|         307|   -5.593847|   -7.948802|    0.824004|    0.012008|
|         308|   -5.599626|   -7.956720|    0.824004|    0.012008|
|         309|   -5.604951|   -7.965307|    0.824005|    0.012008|
|         310|   -5.609708|   -7.974403|    0.824006|    0.012007|
|         311|   -5.613948|   -7.983828|    0.824006|    0.012007|
|         312|   -5.617744|   -7.993380|    0.824007|    0.012007|
|         313|   -5.621145|   -8.002846|    0.824008|    0.012007|
|         314|   -5.624186|   -8.012003|    0.824009|    0.012006|
|         315|   -5.626901|   -8.020633|    0.824010|    0.012006|
|         316|   -5.629335|   -8.028531|    0.824010|    0.012006|
|         317|   -5.631533|   -8.035521|    0.824011|    0.012006|
|         318|   -5.633529|   -8.041463|    0.824012|    0.012006|
|         319|   -5.635347|   -8.046273|    0.824013|    0.012006|
|         320|   -5.636996|   -8.049925|    0.824013|    0.012005|
|         321|   -5.638476|   -8.052453|    0.824014|    0.012005|
|         322|   -5.639777|   -8.053941|    0.824015|    0.012005|
|         323|   -5.640884|   -8.054521|    0.824015|    0.012005|
|         324|   -5.641777|   -8.054355|    0.824016|    0.012005|
|         325|   -5.642439|   -8.053624|    0.824017|    0.012005|
|         326|   -5.642856|   -8.052514|    0.824017|    0.012005|
|         327|   -5.643025|   -8.051204|    0.824018|    0.012005|
|         328|   -5.642954|   -8.049861|    0.824019|    0.012005|
|         329|   -5.642658|   -8.048631|    0.824019|    0.012005|
|         330|   -5.642161|   -8.047638|    0.824020|    0.012005|
|         331|   -5.641490|   -8.046980|    0.824020|    0.012005|
|         332|   -5.640676|   -8.046732|    0.824021|    0.012005|
|         333|   -5.639748|   -8.046943|    0.824021|    0.012005|
|         334|   -5.638737|   -8.047640|    0.824022|    0.012005|
|         335|   -5.637669|   -8.048830|    0.824022|    0.012005|
|         336|   -5.636574|   -8.050502|    0.824022|    0.012006|
|         337|   -5.635478|   -8.052627|    0.824023|    0.012006|
|         338|   -5.634409|   -8.055161|    0.824023|    0.012006|
|         339|   -5.633395|   -8.058049|    0.824024|    0.012006|
|         340|   -5.632465|   -8.061223|    0.824024|    0.012006|
|         341|   -5.631648|   -8.064609|    0.824024|    0.012006|
|         342|   -5.630972|   -8.068124|    0.824025|    0.012007|
|         343|   -5.630465|   -8.071683|    0.824025|    0.012007|
|         344|   -5.630153|   -8.075202|    0.824025|    0.012007|
|         345|   -5.630061|   -8.078594|    0.824026|    0.012007|
|         346|   -5.630212|   -8.081782|    0.824026|    0.012007|
|         347|   -5.630625|   -8.084693|    0.824026|    0.012008|
|         348|   -5.631318|   -8.087266|    0.824026|    0.012008|
|         349|   -5.632305|   -8.089449|    0.824027|    0.012008|
|         350|   -5.633598|   -8.091208|    0.824027|    0.012008|
|         351|   -5.635207|   -8.092521|    0.824027|    0.012008|
|         352|   -5.637136|   -8.093378|    0.824027|    0.012009|
|         353|   -5.639392|   -8.093785|    0.824028|    0.012009|
|         354|   -5.641975|   -8.093760|    0.824028|    0.012009|
|         355|   -5.644884|   -8.093330|    0.824028|    0.012009|
|         356|   -5.648116|   -8.092533|    0.824028|    0.012010|
|         357|   -5.651664|   -8.091411|    0.824028|    0.012010|
|         358|   -5.655519|   -8.090011|    0.824028|    0.012010|
|         359|   -5.659670|   -8.088387|    0.824028|    0.012010|
|         360|   -5.664100|   -8.086589|    0.824028|    0.012011|
|         361|   -5.668792|   -8.084671|    0.824028|    0.012011|
|         362|   -5.673723|   -8.082686|    0.824028|    0.012011|
|         363|   -5.678870|   -8.080686|    0.824028|    0.012011|
|         364|   -5.684204|   -8.078721|    0.824028|    0.012012|
|         365|   -5.689694|   -8.076838|    0.824027|    0.012012|
|         366|   -5.695304|   -8.075085|    0.824027|    0.012012|
|         367|   -5.700998|   -8.073506|    0.824027|    0.012012|
|         368|   -5.706736|   -8.072141|    0.824027|    0.012012|
|         369|   -5.712475|   -8.071030|    0.824026|    0.012012|
|         370|   -5.718170|   -8.070208|    0.824026|    0.012013|
|         371|   -5.723778|   -8.069708|    0.824025|    0.012013|
|         372|   -5.729252|   -8.069556|    0.824025|    0.012013|
|         373|   -5.734547|   -8.069780|    0.824024|    0.012013|
|         374|   -5.739621|   -8.070398|    0.824024|    0.012013|
|         375|   -5.744432|   -8.071427|    0.824023|    0.012013|
|         376|   -5.748945|   -8.072878|    0.824023|    0.012013|
|         377|   -5.753126|   -8.074756|    0.824022|    0.012013|
|         378|   -5.756949|   -8.077060|    0.824021|    0.012014|
|         379|   -5.760395|   -8.079781|    0.824020|    0.012014|
|         380|   -5.763450|   -8.082905|    0.824020|    0.012014|
|         381|   -5.766109|   -8.086409|    0.824019|    0.012014|
|         382|   -5.768375|   -8.090266|    0.824018|    0.012014|
|         383|   -5.770257|   -8.094436|    0.824017|    0.012014|
|         384|   -5.771771|   -8.098875|    0.824016|    0.012014|
|         385|   -5.772940|   -8.103532|    0.824016|    0.012014|
|         386|   -5.773791|   -8.108349|    0.824015|    0.012014|
|         387|   -5.774354|   -8.113265|    0.824014|    0.012014|
|         388|   -5.774666|   -8.118213|    0.824013|    0.012014|
|         389|   -5.774761|   -8.123126|    0.824012|    0.012014|
|         390|   -5.774676|   -8.127938|    0.824011|    0.012013|
|         391|   -5.774447|   -8.132586|    0.824010|    0.012013|
|         392|   -5.774110|   -8.137013|    0.824009|    0.012013|
|         393|   -5.773698|   -8.141170|    0.824009|    0.012013|
|         394|   -5.773240|   -8.145019|    0.824008|    0.012013|
|         395|   -5.772765|   -8.148537|    0.824007|    0.012013|
|         396|   -5.772296|   -8.151710|    0.824006|    0.012013|
|         397|   -5.771856|   -8.154543|    0.824005|    0.012013|
|         398|   -5.771461|   -8.157052|    0.824005|    0.012013|
|         399|   -5.771127|   -8.159264|    0.824004|    0.012013|
|         400|   -5.770864|   -8.161219|    0.824003|    0.012012|
|         401|   -5.770683|   -8.162962|    0.824003|    0.012012|
+-----------------------------------------------------------------------+
|Fixed CL Mode                           |Value                         |
+-----------------------------------------------------------------------+
|Current CL                              |0.824003                      |
|Target CL                               |0.824                         |
|Previous AOA                            |2.78226                       |
|Changed AoA by                          |-1.64581e-05                  |
+-----------------------------------------------------------------------+
+----------------------------------------------------------------+
|  Inner_Iter|    rms[Rho]|     rms[nu]|          CL|          CD|
+----------------------------------------------------------------+
|         402|   -4.972477|   -8.161159|    0.824002|    0.012012|
|         403|   -5.335990|   -8.164372|    0.824001|    0.012012|
|         404|   -5.528888|   -8.166393|    0.824001|    0.012012|
|         405|   -5.574273|   -8.168169|    0.824000|    0.012011|
|         406|   -5.600799|   -8.169867|    0.824000|    0.012011|
|         407|   -5.633779|   -8.171562|    0.823999|    0.012011|
|         408|   -5.669273|   -8.173315|    0.823999|    0.012011|
|         409|   -5.699397|   -8.175178|    0.823999|    0.012011|
|         410|   -5.720370|   -8.177187|    0.823998|    0.012011|
|         411|   -5.733597|   -8.179363|    0.823998|    0.012010|
|         412|   -5.741914|   -8.181714|    0.823998|    0.012010|
|         413|   -5.747163|   -8.184247|    0.823997|    0.012010|
|         414|   -5.750394|   -8.186951|    0.823997|    0.012010|
|         415|   -5.752565|   -8.189810|    0.823997|    0.012010|
|         416|   -5.754633|   -8.192798|    0.823997|    0.012010|
|         417|   -5.757251|   -8.195884|    0.823996|    0.012010|
|         418|   -5.760590|   -8.199034|    0.823996|    0.012009|
|         419|   -5.764443|   -8.202216|    0.823996|    0.012009|
|         420|   -5.768492|   -8.205396|    0.823996|    0.012009|
|         421|   -5.772543|   -8.208546|    0.823996|    0.012009|
|         422|   -5.776592|   -8.211640|    0.823996|    0.012009|
|         423|   -5.780741|   -8.214654|    0.823996|    0.012009|
|         424|   -5.785073|   -8.217572|    0.823996|    0.012009|
|         425|   -5.789574|   -8.220381|    0.823996|    0.012009|
|         426|   -5.794141|   -8.223079|    0.823996|    0.012009|
|         427|   -5.798639|   -8.225668|    0.823996|    0.012008|
|         428|   -5.802958|   -8.228157|    0.823996|    0.012008|
|         429|   -5.807037|   -8.230560|    0.823997|    0.012008|
|         430|   -5.810874|   -8.232897|    0.823997|    0.012008|
|         431|   -5.814509|   -8.235187|    0.823997|    0.012008|
|         432|   -5.818011|   -8.237452|    0.823997|    0.012008|
|         433|   -5.821462|   -8.239711|    0.823997|    0.012008|
|         434|   -5.824932|   -8.241982|    0.823998|    0.012008|
|         435|   -5.828467|   -8.244280|    0.823998|    0.012008|
|         436|   -5.832071|   -8.246613|    0.823998|    0.012008|
|         437|   -5.835705|   -8.248987|    0.823998|    0.012008|
|         438|   -5.839288|   -8.251400|    0.823999|    0.012008|
|         439|   -5.842714|   -8.253847|    0.823999|    0.012008|
|         440|   -5.845861|   -8.256315|    0.823999|    0.012008|
|         441|   -5.848613|   -8.258786|    0.823999|    0.012008|
|         442|   -5.850875|   -8.261237|    0.824000|    0.012008|
|         443|   -5.852582|   -8.263639|    0.824000|    0.012008|
|         444|   -5.853710|   -8.265960|    0.824000|    0.012009|
|         445|   -5.854267|   -8.268164|    0.824001|    0.012009|
|         446|   -5.854294|   -8.270210|    0.824001|    0.012009|
|         447|   -5.853846|   -8.272057|    0.824001|    0.012009|
|         448|   -5.852983|   -8.273665|    0.824002|    0.012009|
|         449|   -5.851760|   -8.274992|    0.824002|    0.012009|
|         450|   -5.850226|   -8.276001|    0.824002|    0.012009|
|         451|   -5.848417|   -8.276661|    0.824003|    0.012009|
|         452|   -5.846367|   -8.276946|    0.824003|    0.012009|
|         453|   -5.844107|   -8.276836|    0.824003|    0.012010|
|         454|   -5.841670|   -8.276322|    0.824003|    0.012010|
|         455|   -5.839097|   -8.275404|    0.824004|    0.012010|
|         456|   -5.836430|   -8.274095|    0.824004|    0.012010|
|         457|   -5.833721|   -8.272417|    0.824004|    0.012010|
|         458|   -5.831019|   -8.270400|    0.824004|    0.012010|
|         459|   -5.828376|   -8.268085|    0.824004|    0.012010|
|         460|   -5.825841|   -8.265521|    0.824005|    0.012010|
|         461|   -5.823458|   -8.262759|    0.824005|    0.012011|
|         462|   -5.821266|   -8.259856|    0.824005|    0.012011|
|         463|   -5.819298|   -8.256870|    0.824005|    0.012011|
|         464|   -5.817584|   -8.253860|    0.824005|    0.012011|
|         465|   -5.816146|   -8.250882|    0.824005|    0.012011|
|         466|   -5.815005|   -8.247989|    0.824005|    0.012011|
|         467|   -5.814176|   -8.245232|    0.824005|    0.012011|
|         468|   -5.813674|   -8.242654|    0.824005|    0.012012|
|         469|   -5.813508|   -8.240296|    0.824005|    0.012012|
|         470|   -5.813686|   -8.238188|    0.824005|    0.012012|
|         471|   -5.814213|   -8.236355|    0.824005|    0.012012|
|         472|   -5.815091|   -8.234816|    0.824005|    0.012012|
|         473|   -5.816321|   -8.233583|    0.824005|    0.012012|
|         474|   -5.817901|   -8.232661|    0.824004|    0.012012|
|         475|   -5.819823|   -8.232050|    0.824004|    0.012012|
|         476|   -5.822082|   -8.231743|    0.824004|    0.012012|
|         477|   -5.824667|   -8.231730|    0.824004|    0.012012|
|         478|   -5.827565|   -8.231995|    0.824004|    0.012013|
|         479|   -5.830762|   -8.232517|    0.824003|    0.012013|
|         480|   -5.834240|   -8.233275|    0.824003|    0.012013|
|         481|   -5.837979|   -8.234244|    0.824003|    0.012013|
|         482|   -5.841958|   -8.235396|    0.824003|    0.012013|
|         483|   -5.846151|   -8.236704|    0.824002|    0.012013|
|         484|   -5.850531|   -8.238141|    0.824002|    0.012013|
|         485|   -5.855070|   -8.239681|    0.824002|    0.012013|
|         486|   -5.859734|   -8.241298|    0.824001|    0.012013|
|         487|   -5.864489|   -8.242970|    0.824001|    0.012013|
|         488|   -5.869299|   -8.244677|    0.824001|    0.012013|
|         489|   -5.874126|   -8.246403|    0.824000|    0.012013|
|         490|   -5.878929|   -8.248135|    0.824000|    0.012013|
|         491|   -5.883667|   -8.249864|    0.824000|    0.012013|
|         492|   -5.888299|   -8.251584|    0.823999|    0.012013|
|         493|   -5.892780|   -8.253295|    0.823999|    0.012013|
|         494|   -5.897070|   -8.254998|    0.823999|    0.012013|
|         495|   -5.901128|   -8.256696|    0.823998|    0.012013|
|         496|   -5.904915|   -8.258399|    0.823998|    0.012013|
|         497|   -5.908394|   -8.260114|    0.823998|    0.012012|
|         498|   -5.911534|   -8.261851|    0.823997|    0.012012|
|         499|   -5.914307|   -8.263621|    0.823997|    0.012012|
|         500|   -5.916690|   -8.265435|    0.823997|    0.012012|
|         501|   -5.918668|   -8.267304|    0.823996|    0.012012|
+-----------------------------------------------------------------------+
|Fixed CL Mode                           |Value                         |
+-----------------------------------------------------------------------+
|Current CL                              |0.823996                      |
|Target CL                               |0.824                         |
|Previous AOA                            |2.78225                       |
|Changed AoA by                          |1.65392e-05                   |
+-----------------------------------------------------------------------+
+----------------------------------------------------------------+
|  Inner_Iter|    rms[Rho]|     rms[nu]|          CL|          CD|
+----------------------------------------------------------------+
|         502|   -4.971150|   -8.263420|    0.823996|    0.012012|
|         503|   -5.336237|   -8.268047|    0.823996|    0.012012|
|         504|   -5.540903|   -8.270885|    0.823995|    0.012012|
|         505|   -5.603465|   -8.273464|    0.823995|    0.012012|
|         506|   -5.646921|   -8.276031|    0.823995|    0.012012|
|         507|   -5.697672|   -8.278651|    0.823995|    0.012012|
|         508|   -5.751618|   -8.281344|    0.823994|    0.012012|
|         509|   -5.798082|   -8.284115|    0.823994|    0.012011|
|         510|   -5.830232|   -8.286956|    0.823994|    0.012011|
|         511|   -5.849185|   -8.289850|    0.823994|    0.012011|
|         512|   -5.859284|   -8.292782|    0.823993|    0.012011|
|         513|   -5.863696|   -8.295740|    0.823993|    0.012011|
|         514|   -5.864412|   -8.298713|    0.823993|    0.012011|
|         515|   -5.863301|   -8.301690|    0.823993|    0.012011|
|         516|   -5.862116|   -8.304658|    0.823993|    0.012010|
|         517|   -5.861950|   -8.307602|    0.823992|    0.012010|
|         518|   -5.862978|   -8.310510|    0.823992|    0.012010|
|         519|   -5.864704|   -8.313375|    0.823992|    0.012010|
|         520|   -5.866454|   -8.316191|    0.823992|    0.012010|
|         521|   -5.867795|   -8.318955|    0.823992|    0.012010|
|         522|   -5.868671|   -8.321664|    0.823992|    0.012010|
|         523|   -5.869281|   -8.324315|    0.823992|    0.012010|
|         524|   -5.869866|   -8.326903|    0.823992|    0.012010|
|         525|   -5.870581|   -8.329427|    0.823992|    0.012009|
|         526|   -5.871472|   -8.331885|    0.823992|    0.012009|
|         527|   -5.872535|   -8.334277|    0.823992|    0.012009|
|         528|   -5.873757|   -8.336605|    0.823992|    0.012009|
|         529|   -5.875138|   -8.338872|    0.823992|    0.012009|
|         530|   -5.876690|   -8.341082|    0.823992|    0.012009|
|         531|   -5.878427|   -8.343241|    0.823992|    0.012009|
|         532|   -5.880371|   -8.345358|    0.823992|    0.012009|
|         533|   -5.882553|   -8.347441|    0.823992|    0.012009|
|         534|   -5.885012|   -8.349504|    0.823992|    0.012009|
|         535|   -5.887788|   -8.351560|    0.823992|    0.012009|
|         536|   -5.890911|   -8.353629|    0.823992|    0.012009|
|         537|   -5.894397|   -8.355728|    0.823992|    0.012009|
|         538|   -5.898238|   -8.357879|    0.823992|    0.012009|
|         539|   -5.902406|   -8.360101|    0.823992|    0.012009|
|         540|   -5.906857|   -8.362416|    0.823992|    0.012009|
|         541|   -5.911532|   -8.364844|    0.823992|    0.012009|
|         542|   -5.916372|   -8.367408|    0.823992|    0.012009|
|         543|   -5.921326|   -8.370126|    0.823992|    0.012009|
|         544|   -5.926353|   -8.373018|    0.823993|    0.012009|
|         545|   -5.931433|   -8.376100|    0.823993|    0.012009|
|         546|   -5.936558|   -8.379387|    0.823993|    0.012009|
|         547|   -5.941728|   -8.382894|    0.823993|    0.012009|
|         548|   -5.946939|   -8.386632|    0.823993|    0.012009|
|         549|   -5.952176|   -8.390608|    0.823993|    0.012009|
|         550|   -5.957406|   -8.394830|    0.823993|    0.012009|
|         551|   -5.962578|   -8.399300|    0.823993|    0.012009|
|         552|   -5.967627|   -8.404017|    0.823994|    0.012009|
|         553|   -5.972482|   -8.408979|    0.823994|    0.012010|
|         554|   -5.977071|   -8.414182|    0.823994|    0.012010|
|         555|   -5.981330|   -8.419614|    0.823994|    0.012010|
|         556|   -5.985205|   -8.425262|    0.823994|    0.012010|
|         557|   -5.988659|   -8.431108|    0.823994|    0.012010|
|         558|   -5.991668|   -8.437130|    0.823995|    0.012010|
|         559|   -5.994223|   -8.443301|    0.823995|    0.012010|
|         560|   -5.996324|   -8.449592|    0.823995|    0.012010|
|         561|   -5.997980|   -8.455967|    0.823995|    0.012010|
|         562|   -5.999207|   -8.462387|    0.823995|    0.012011|
|         563|   -6.000027|   -8.468807|    0.823996|    0.012011|
|         564|   -6.000466|   -8.475179|    0.823996|    0.012011|
|         565|   -6.000556|   -8.481451|    0.823996|    0.012011|
|         566|   -6.000334|   -8.487566|    0.823996|    0.012011|
|         567|   -5.999843|   -8.493469|    0.823996|    0.012011|
|         568|   -5.999129|   -8.499099|    0.823996|    0.012012|
|         569|   -5.998240|   -8.504399|    0.823996|    0.012012|
|         570|   -5.997227|   -8.509313|    0.823997|    0.012012|
|         571|   -5.996142|   -8.513792|    0.823997|    0.012012|
|         572|   -5.995034|   -8.517792|    0.823997|    0.012012|
|         573|   -5.993953|   -8.521277|    0.823997|    0.012012|
|         574|   -5.992943|   -8.524223|    0.823997|    0.012012|
|         575|   -5.992048|   -8.526619|    0.823997|    0.012012|
|         576|   -5.991308|   -8.528467|    0.823997|    0.012013|
|         577|   -5.990758|   -8.529780|    0.823997|    0.012013|
|         578|   -5.990432|   -8.530589|    0.823997|    0.012013|
|         579|   -5.990359|   -8.530935|    0.823997|    0.012013|
|         580|   -5.990566|   -8.530869|    0.823997|    0.012013|
|         581|   -5.991075|   -8.530452|    0.823997|    0.012013|
|         582|   -5.991908|   -8.529752|    0.823997|    0.012013|
|         583|   -5.993080|   -8.528842|    0.823997|    0.012013|
|         584|   -5.994605|   -8.527794|    0.823997|    0.012013|
|         585|   -5.996494|   -8.526683|    0.823997|    0.012013|
|         586|   -5.998756|   -8.525581|    0.823996|    0.012014|
|         587|   -6.001393|   -8.524557|    0.823996|    0.012014|
|         588|   -6.004410|   -8.523669|    0.823996|    0.012014|
|         589|   -6.007804|   -8.522971|    0.823996|    0.012014|
|         590|   -6.011571|   -8.522507|    0.823996|    0.012014|
|         591|   -6.015704|   -8.522315|    0.823995|    0.012014|
|         592|   -6.020192|   -8.522422|    0.823995|    0.012014|
|         593|   -6.025021|   -8.522850|    0.823995|    0.012014|
|         594|   -6.030175|   -8.523611|    0.823995|    0.012014|
|         595|   -6.035631|   -8.524709|    0.823994|    0.012014|
|         596|   -6.041365|   -8.526140|    0.823994|    0.012014|
|         597|   -6.047349|   -8.527893|    0.823994|    0.012014|
|         598|   -6.053549|   -8.529948|    0.823994|    0.012014|
|         599|   -6.059928|   -8.532277|    0.823993|    0.012014|
|         600|   -6.066446|   -8.534845|    0.823993|    0.012014|
|         601|   -6.073059|   -8.537616|    0.823993|    0.012014|
+-----------------------------------------------------------------------+
|Fixed CL Mode                           |Value                         |
+-----------------------------------------------------------------------+
|Current CL                              |0.823993                      |
|Target CL                               |0.824                         |
|Previous AOA                            |2.78226                       |
|Changed AoA by                          |3.5236e-05                    |
+-----------------------------------------------------------------------+
+----------------------------------------------------------------+
|  Inner_Iter|    rms[Rho]|     rms[nu]|          CL|          CD|
+----------------------------------------------------------------+
|         602|   -4.645922|   -8.466632|    0.823992|    0.012014|
|         603|   -5.027399|   -8.502377|    0.823992|    0.012014|
|         604|   -5.264068|   -8.516059|    0.823992|    0.012014|
|         605|   -5.339595|   -8.525127|    0.823991|    0.012014|
|         606|   -5.392036|   -8.532500|    0.823991|    0.012014|
|         607|   -5.459710|   -8.538895|    0.823991|    0.012014|
|         608|   -5.542239|   -8.544576|    0.823990|    0.012014|
|         609|   -5.627068|   -8.549703|    0.823990|    0.012013|
|         610|   -5.699139|   -8.554340|    0.823990|    0.012013|
|         611|   -5.751676|   -8.558478|    0.823990|    0.012013|
|         612|   -5.786681|   -8.562091|    0.823989|    0.012013|
|         613|   -5.807630|   -8.565228|    0.823989|    0.012013|
|         614|   -5.817763|   -8.567979|    0.823989|    0.012013|
|         615|   -5.822015|   -8.570413|    0.823989|    0.012013|
|         616|   -5.826106|   -8.572543|    0.823988|    0.012013|
|         617|   -5.833961|   -8.574356|    0.823988|    0.012013|
|         618|   -5.846534|   -8.575858|    0.823988|    0.012012|
|         619|   -5.862310|   -8.577085|    0.823988|    0.012012|
|         620|   -5.878703|   -8.578107|    0.823987|    0.012012|
|         621|   -5.893627|   -8.578976|    0.823987|    0.012012|
|         622|   -5.906457|   -8.579729|    0.823987|    0.012012|
|         623|   -5.917826|   -8.580379|    0.823987|    0.012012|
|         624|   -5.928692|   -8.580931|    0.823987|    0.012012|
|         625|   -5.939555|   -8.581387|    0.823987|    0.012012|
|         626|   -5.950275|   -8.581756|    0.823987|    0.012011|
|         627|   -5.960321|   -8.582055|    0.823987|    0.012011|
|         628|   -5.969128|   -8.582304|    0.823987|    0.012011|
|         629|   -5.976317|   -8.582528|    0.823986|    0.012011|
|         630|   -5.981763|   -8.582749|    0.823986|    0.012011|
|         631|   -5.985587|   -8.582990|    0.823986|    0.012011|
|         632|   -5.988130|   -8.583267|    0.823986|    0.012011|
|         633|   -5.989910|   -8.583594|    0.823986|    0.012011|
|         634|   -5.991527|   -8.583977|    0.823986|    0.012011|
|         635|   -5.993545|   -8.584421|    0.823986|    0.012010|
|         636|   -5.996385|   -8.584924|    0.823987|    0.012010|
|         637|   -6.000263|   -8.585485|    0.823987|    0.012010|
|         638|   -6.005184|   -8.586100|    0.823987|    0.012010|
|         639|   -6.010962|   -8.586768|    0.823987|    0.012010|
|         640|   -6.017269|   -8.587492|    0.823987|    0.012010|
|         641|   -6.023708|   -8.588279|    0.823987|    0.012010|
|         642|   -6.029895|   -8.589139|    0.823987|    0.012010|
|         643|   -6.035557|   -8.590085|    0.823987|    0.012010|
|         644|   -6.040597|   -8.591131|    0.823988|    0.012010|
|         645|   -6.045119|   -8.592299|    0.823988|    0.012010|
|         646|   -6.049391|   -8.593603|    0.823988|    0.012010|
|         647|   -6.053765|   -8.595057|    0.823988|    0.012010|
|         648|   -6.058587|   -8.596679|    0.823988|    0.012010|
|         649|   -6.064118|   -8.598475|    0.823989|    0.012010|
|         650|   -6.070495|   -8.600456|    0.823989|    0.012010|
|         651|   -6.077726|   -8.602627|    0.823989|    0.012010|
|         652|   -6.085704|   -8.604995|    0.823989|    0.012010|
|         653|   -6.094252|   -8.607565|    0.823990|    0.012010|
|         654|   -6.103164|   -8.610336|    0.823990|    0.012010|
|         655|   -6.112248|   -8.613313|    0.823990|    0.012010|
|         656|   -6.121359|   -8.616508|    0.823991|    0.012010|
|         657|   -6.130413|   -8.619930|    0.823991|    0.012010|
|         658|   -6.139384|   -8.623585|    0.823991|    0.012010|
|         659|   -6.148293|   -8.627475|    0.823992|    0.012010|
|         660|   -6.157179|   -8.631604|    0.823992|    0.012010|
|         661|   -6.166084|   -8.635970|    0.823992|    0.012010|
|         662|   -6.175027|   -8.640572|    0.823993|    0.012010|
|         663|   -6.184002|   -8.645406|    0.823993|    0.012011|
|         664|   -6.192971|   -8.650464|    0.823994|    0.012011|
|         665|   -6.201875|   -8.655735|    0.823994|    0.012011|
|         666|   -6.210638|   -8.661202|    0.823994|    0.012011|
|         667|   -6.219179|   -8.666845|    0.823995|    0.012011|
|         668|   -6.227421|   -8.672633|    0.823995|    0.012011|
|         669|   -6.235291|   -8.678532|    0.823995|    0.012011|
|         670|   -6.242729|   -8.684497|    0.823996|    0.012011|
|         671|   -6.249685|   -8.690472|    0.823996|    0.012011|
|         672|   -6.256118|   -8.696396|    0.823996|    0.012011|
|         673|   -6.261996|   -8.702192|    0.823997|    0.012012|
|         674|   -6.267294|   -8.707781|    0.823997|    0.012012|
|         675|   -6.271999|   -8.713075|    0.823997|    0.012012|
|         676|   -6.276106|   -8.717982|    0.823997|    0.012012|
|         677|   -6.279622|   -8.722414|    0.823998|    0.012012|
|         678|   -6.282567|   -8.726285|    0.823998|    0.012012|
|         679|   -6.284973|   -8.729523|    0.823998|    0.012012|
|         680|   -6.286887|   -8.732073|    0.823998|    0.012012|
|         681|   -6.288362|   -8.733898|    0.823998|    0.012012|
|         682|   -6.289463|   -8.734992|    0.823998|    0.012013|
|         683|   -6.290261|   -8.735374|    0.823999|    0.012013|
|         684|   -6.290828|   -8.735091|    0.823999|    0.012013|
|         685|   -6.291241|   -8.734219|    0.823999|    0.012013|
|         686|   -6.291573|   -8.732856|    0.823999|    0.012013|
|         687|   -6.291896|   -8.731119|    0.823999|    0.012013|
|         688|   -6.292278|   -8.729136|    0.823999|    0.012013|
|         689|   -6.292781|   -8.727047|    0.823999|    0.012013|
|         690|   -6.293462|   -8.724989|    0.823998|    0.012013|
|         691|   -6.294371|   -8.723099|    0.823998|    0.012013|
|         692|   -6.295552|   -8.721507|    0.823998|    0.012013|
|         693|   -6.297042|   -8.720333|    0.823998|    0.012013|
|         694|   -6.298872|   -8.719685|    0.823998|    0.012013|
|         695|   -6.301064|   -8.719659|    0.823998|    0.012014|
|         696|   -6.303636|   -8.720337|    0.823997|    0.012014|
|         697|   -6.306599|   -8.721785|    0.823997|    0.012014|
|         698|   -6.309957|   -8.724054|    0.823997|    0.012014|
|         699|   -6.313711|   -8.727182|    0.823997|    0.012014|
|         700|   -6.317853|   -8.731188|    0.823996|    0.012014|
|         701|   -6.322374|   -8.736079|    0.823996|    0.012014|
+-----------------------------------------------------------------------+
|Fixed CL Mode                           |Value                         |
+-----------------------------------------------------------------------+
|Current CL                              |0.823996                      |
|Target CL                               |0.824                         |
|Previous AOA                            |2.7823                        |
|Changed AoA by                          |1.80781e-05                   |
+-----------------------------------------------------------------------+
+----------------------------------------------------------------+
|  Inner_Iter|    rms[Rho]|     rms[nu]|          CL|          CD|
+----------------------------------------------------------------+
|         702|   -4.935673|   -8.689075|    0.823996|    0.012014|
|         703|   -5.315916|   -8.719015|    0.823996|    0.012014|
|         704|   -5.548556|   -8.733812|    0.823995|    0.012014|
|         705|   -5.621358|   -8.746050|    0.823995|    0.012014|
|         706|   -5.672325|   -8.757694|    0.823995|    0.012014|
|         707|   -5.738495|   -8.769161|    0.823994|    0.012014|
|         708|   -5.819237|   -8.780552|    0.823994|    0.012014|
|         709|   -5.902564|   -8.791875|    0.823994|    0.012014|
|         710|   -5.974556|   -8.803050|    0.823993|    0.012014|
|         711|   -6.029024|   -8.813879|    0.823993|    0.012014|
|         712|   -6.067477|   -8.824118|    0.823993|    0.012014|
|         713|   -6.092454|   -8.833549|    0.823993|    0.012014|
|         714|   -6.106293|   -8.841986|    0.823992|    0.012014|
|         715|   -6.113384|   -8.849248|    0.823992|    0.012014|
|         716|   -6.119423|   -8.855129|    0.823992|    0.012014|
|         717|   -6.128640|   -8.859450|    0.823991|    0.012014|
|         718|   -6.142359|   -8.862111|    0.823991|    0.012013|
|         719|   -6.159375|   -8.863117|    0.823991|    0.012013|
|         720|   -6.177321|   -8.862587|    0.823991|    0.012013|
|         721|   -6.194231|   -8.860665|    0.823991|    0.012013|
|         722|   -6.209499|   -8.857536|    0.823990|    0.012013|
|         723|   -6.223695|   -8.853391|    0.823990|    0.012013|
|         724|   -6.237654|   -8.848433|    0.823990|    0.012013|
|         725|   -6.251689|   -8.842860|    0.823990|    0.012013|
|         726|   -6.265398|   -8.836868|    0.823990|    0.012013|
|         727|   -6.277962|   -8.830651|    0.823990|    0.012013|
|         728|   -6.288569|   -8.824387|    0.823989|    0.012013|
|         729|   -6.296711|   -8.818235|    0.823989|    0.012013|
|         730|   -6.302281|   -8.812328|    0.823989|    0.012013|
|         731|   -6.305541|   -8.806774|    0.823989|    0.012012|
|         732|   -6.307045|   -8.801651|    0.823989|    0.012012|
|         733|   -6.307526|   -8.797013|    0.823989|    0.012012|
|         734|   -6.307753|   -8.792892|    0.823989|    0.012012|
|         735|   -6.308384|   -8.789297|    0.823989|    0.012012|
|         736|   -6.309858|   -8.786222|    0.823989|    0.012012|
|         737|   -6.312353|   -8.783650|    0.823989|    0.012012|
|         738|   -6.315792|   -8.781551|    0.823989|    0.012012|
|         739|   -6.319898|   -8.779894|    0.823989|    0.012012|
|         740|   -6.324260|   -8.778644|    0.823989|    0.012012|
|         741|   -6.328427|   -8.777762|    0.823989|    0.012012|
|         742|   -6.332004|   -8.777216|    0.823990|    0.012011|
|         743|   -6.334749|   -8.776971|    0.823990|    0.012011|
|         744|   -6.336637|   -8.776995|    0.823990|    0.012011|
|         745|   -6.337857|   -8.777259|    0.823990|    0.012011|
|         746|   -6.338755|   -8.777736|    0.823990|    0.012011|
|         747|   -6.339734|   -8.778401|    0.823990|    0.012011|
|         748|   -6.341157|   -8.779231|    0.823990|    0.012011|
|         749|   -6.343284|   -8.780204|    0.823990|    0.012011|
|         750|   -6.346234|   -8.781301|    0.823990|    0.012011|
|         751|   -6.349994|   -8.782502|    0.823991|    0.012011|
|         752|   -6.354449|   -8.783790|    0.823991|    0.012011|
|         753|   -6.359427|   -8.785151|    0.823991|    0.012011|
|         754|   -6.364739|   -8.786572|    0.823991|    0.012011|
|         755|   -6.370226|   -8.788026|    0.823991|    0.012011|
|         756|   -6.375776|   -8.789511|    0.823991|    0.012011|
|         757|   -6.381339|   -8.791017|    0.823992|    0.012011|
|         758|   -6.386913|   -8.792537|    0.823992|    0.012011|
|         759|   -6.392534|   -8.794062|    0.823992|    0.012011|
|         760|   -6.398251|   -8.795586|    0.823992|    0.012011|
|         761|   -6.404106|   -8.797104|    0.823992|    0.012011|
|         762|   -6.410120|   -8.798616|    0.823993|    0.012011|
|         763|   -6.416293|   -8.800120|    0.823993|    0.012011|
|         764|   -6.422597|   -8.801620|    0.823993|    0.012011|
|         765|   -6.428988|   -8.803123|    0.823993|    0.012011|
|         766|   -6.435407|   -8.804637|    0.823993|    0.012011|
|         767|   -6.441794|   -8.806171|    0.823994|    0.012011|
|         768|   -6.448090|   -8.807737|    0.823994|    0.012011|
|         769|   -6.454238|   -8.809347|    0.823994|    0.012011|
|         770|   -6.460189|   -8.811010|    0.823994|    0.012011|
|         771|   -6.465899|   -8.812736|    0.823995|    0.012011|
|         772|   -6.471327|   -8.814528|    0.823995|    0.012011|
|         773|   -6.476435|   -8.816387|    0.823995|    0.012011|
|         774|   -6.481190|   -8.818305|    0.823995|    0.012011|
|         775|   -6.485561|   -8.820267|    0.823995|    0.012011|
|         776|   -6.489521|   -8.822253|    0.823995|    0.012011|
|         777|   -6.493052|   -8.824234|    0.823996|    0.012011|
|         778|   -6.496144|   -8.826171|    0.823996|    0.012011|
|         779|   -6.498796|   -8.828023|    0.823996|    0.012011|
|         780|   -6.501016|   -8.829734|    0.823996|    0.012011|
|         781|   -6.502825|   -8.831250|    0.823996|    0.012011|
|         782|   -6.504249|   -8.832516|    0.823996|    0.012011|
|         783|   -6.505327|   -8.833477|    0.823996|    0.012011|
|         784|   -6.506102|   -8.834086|    0.823997|    0.012012|
|         785|   -6.506622|   -8.834304|    0.823997|    0.012012|
|         786|   -6.506939|   -8.834106|    0.823997|    0.012012|
|         787|   -6.507107|   -8.833484|    0.823997|    0.012012|
|         788|   -6.507179|   -8.832448|    0.823997|    0.012012|
|         789|   -6.507207|   -8.831024|    0.823997|    0.012012|
|         790|   -6.507240|   -8.829259|    0.823997|    0.012012|
|         791|   -6.507325|   -8.827212|    0.823997|    0.012012|
|         792|   -6.507503|   -8.824959|    0.823997|    0.012012|
|         793|   -6.507811|   -8.822584|    0.823997|    0.012012|
|         794|   -6.508279|   -8.820179|    0.823997|    0.012012|
|         795|   -6.508933|   -8.817838|    0.823997|    0.012012|
|         796|   -6.509794|   -8.815655|    0.823997|    0.012012|
|         797|   -6.510876|   -8.813721|    0.823997|    0.012012|
|         798|   -6.512189|   -8.812121|    0.823996|    0.012012|
|         799|   -6.513738|   -8.810930|    0.823996|    0.012012|
|         800|   -6.515521|   -8.810214|    0.823996|    0.012013|
|         801|   -6.517534|   -8.810028|    0.823996|    0.012013|
+-----------------------------------------------------------------------+
|Fixed CL Mode                           |Value                         |
+-----------------------------------------------------------------------+
|Current CL                              |0.823996                      |
|Target CL                               |0.824                         |
|Previous AOA                            |2.78232                       |
|Changed AoA by                          |1.89246e-05                   |
+-----------------------------------------------------------------------+
+----------------------------------------------------------------+
|  Inner_Iter|    rms[Rho]|     rms[nu]|          CL|          CD|
+----------------------------------------------------------------+
|         802|   -4.916155|   -8.737083|    0.823996|    0.012013|
|         803|   -5.298729|   -8.771266|    0.823996|    0.012013|
|         804|   -5.537003|   -8.783641|    0.823996|    0.012013|
|         805|   -5.612345|   -8.791873|    0.823996|    0.012013|
|         806|   -5.664392|   -8.798927|    0.823995|    0.012013|
|         807|   -5.732283|   -8.805546|    0.823995|    0.012013|
|         808|   -5.815997|   -8.812012|    0.823995|    0.012013|
|         809|   -5.903341|   -8.818493|    0.823995|    0.012013|
|         810|   -5.979247|   -8.825065|    0.823995|    0.012013|
|         811|   -6.036302|   -8.831695|    0.823995|    0.012013|
|         812|   -6.075704|   -8.838321|    0.823994|    0.012013|
|         813|   -6.100262|   -8.844926|    0.823994|    0.012013|
|         814|   -6.112825|   -8.851523|    0.823994|    0.012013|
|         815|   -6.118534|   -8.858095|    0.823994|    0.012013|
|         816|   -6.123755|   -8.864558|    0.823994|    0.012013|
|         817|   -6.133030|   -8.870798|    0.823994|    0.012013|
|         818|   -6.147655|   -8.876715|    0.823994|    0.012013|
|         819|   -6.166166|   -8.882252|    0.823993|    0.012013|
|         820|   -6.185821|   -8.887393|    0.823993|    0.012013|
|         821|   -6.204326|   -8.892127|    0.823993|    0.012013|
|         822|   -6.220967|   -8.896441|    0.823993|    0.012013|
|         823|   -6.236457|   -8.900290|    0.823993|    0.012013|
|         824|   -6.251886|   -8.903643|    0.823993|    0.012013|
|         825|   -6.267777|   -8.906483|    0.823993|    0.012013|
|         826|   -6.283808|   -8.908816|    0.823992|    0.012013|
|         827|   -6.299100|   -8.910677|    0.823992|    0.012013|
|         828|   -6.312674|   -8.912116|    0.823992|    0.012013|
|         829|   -6.323803|   -8.913199|    0.823992|    0.012013|
|         830|   -6.332163|   -8.913999|    0.823992|    0.012013|
|         831|   -6.337870|   -8.914585|    0.823992|    0.012013|
|         832|   -6.341438|   -8.915020|    0.823992|    0.012013|
|         833|   -6.343682|   -8.915356|    0.823992|    0.012013|
|         834|   -6.345537|   -8.915627|    0.823992|    0.012013|
|         835|   -6.347855|   -8.915855|    0.823992|    0.012013|
|         836|   -6.351245|   -8.916040|    0.823992|    0.012013|
|         837|   -6.355994|   -8.916174|    0.823992|    0.012013|
|         838|   -6.362058|   -8.916241|    0.823992|    0.012013|
|         839|   -6.369104|   -8.916219|    0.823992|    0.012013|
|         840|   -6.376581|   -8.916089|    0.823992|    0.012013|
|         841|   -6.383832|   -8.915828|    0.823992|    0.012013|
|         842|   -6.390232|   -8.915425|    0.823992|    0.012013|
|         843|   -6.395346|   -8.914871|    0.823992|    0.012013|
|         844|   -6.399045|   -8.914161|    0.823992|    0.012013|
|         845|   -6.401536|   -8.913298|    0.823992|    0.012012|
|         846|   -6.403287|   -8.912287|    0.823992|    0.012012|
|         847|   -6.404878|   -8.911140|    0.823992|    0.012012|
|         848|   -6.406855|   -8.909867|    0.823992|    0.012012|
|         849|   -6.409617|   -8.908483|    0.823992|    0.012012|
|         850|   -6.413365|   -8.907003|    0.823992|    0.012012|
|         851|   -6.418105|   -8.905443|    0.823992|    0.012012|
|         852|   -6.423693|   -8.903819|    0.823992|    0.012012|
|         853|   -6.429891|   -8.902154|    0.823992|    0.012012|
|         854|   -6.436436|   -8.900472|    0.823993|    0.012012|
|         855|   -6.443101|   -8.898777|    0.823993|    0.012012|
|         856|   -6.449729|   -8.897104|    0.823993|    0.012012|
|         857|   -6.456256|   -8.895489|    0.823993|    0.012012|
|         858|   -6.462699|   -8.893965|    0.823993|    0.012012|
|         859|   -6.469133|   -8.892564|    0.823993|    0.012012|
|         860|   -6.475660|   -8.891324|    0.823993|    0.012012|
|         861|   -6.482374|   -8.890282|    0.823994|    0.012012|
|         862|   -6.489346|   -8.889479|    0.823994|    0.012012|
|         863|   -6.496607|   -8.888954|    0.823994|    0.012012|
|         864|   -6.504153|   -8.888749|    0.823994|    0.012012|
|         865|   -6.511949|   -8.888906|    0.823994|    0.012012|
|         866|   -6.519944|   -8.889467|    0.823994|    0.012012|
|         867|   -6.528074|   -8.890465|    0.823995|    0.012012|
|         868|   -6.536276|   -8.891932|    0.823995|    0.012012|
|         869|   -6.544489|   -8.893894|    0.823995|    0.012012|
|         870|   -6.552658|   -8.896367|    0.823995|    0.012012|
|         871|   -6.560726|   -8.899358|    0.823995|    0.012012|
|         872|   -6.568641|   -8.902861|    0.823996|    0.012012|
|         873|   -6.576346|   -8.906858|    0.823996|    0.012011|
|         874|   -6.583780|   -8.911314|    0.823996|    0.012011|
|         875|   -6.590881|   -8.916177|    0.823996|    0.012011|
|         876|   -6.597585|   -8.921378|    0.823996|    0.012011|
|         877|   -6.603830|   -8.926829|    0.823997|    0.012011|
|         878|   -6.609561|   -8.932426|    0.823997|    0.012011|
|         879|   -6.614731|   -8.938042|    0.823997|    0.012011|
|         880|   -6.619306|   -8.943543|    0.823997|    0.012011|
|         881|   -6.623266|   -8.948786|    0.823997|    0.012011|
|         882|   -6.626606|   -8.953624|    0.823997|    0.012011|
|         883|   -6.629338|   -8.957917|    0.823997|    0.012012|
|         884|   -6.631486|   -8.961541|    0.823998|    0.012012|
|         885|   -6.633090|   -8.964394|    0.823998|    0.012012|
|         886|   -6.634201|   -8.966411|    0.823998|    0.012012|
|         887|   -6.634879|   -8.967561|    0.823998|    0.012012|
|         888|   -6.635189|   -8.967857|    0.823998|    0.012012|
|         889|   -6.635203|   -8.967353|    0.823998|    0.012012|
|         890|   -6.634991|   -8.966139|    0.823998|    0.012012|
|         891|   -6.634626|   -8.964337|    0.823998|    0.012012|
|         892|   -6.634174|   -8.962091|    0.823998|    0.012012|
|         893|   -6.633700|   -8.959557|    0.823998|    0.012012|
|         894|   -6.633261|   -8.956897|    0.823998|    0.012012|
|         895|   -6.632911|   -8.954267|    0.823998|    0.012012|
|         896|   -6.632695|   -8.951817|    0.823998|    0.012012|
|         897|   -6.632653|   -8.949679|    0.823998|    0.012012|
|         898|   -6.632816|   -8.947971|    0.823998|    0.012012|
|         899|   -6.633213|   -8.946789|    0.823998|    0.012012|
|         900|   -6.633864|   -8.946212|    0.823998|    0.012012|
|         901|   -6.634786|   -8.946297|    0.823998|    0.012012|
+-----------------------------------------------------------------------+
|Fixed CL Mode                           |Value                         |
+-----------------------------------------------------------------------+
|Current CL                              |0.823998                      |
|Target CL                               |0.824                         |
|Previous AOA                            |2.78233                       |
[...]
|        5298|   -6.041729|   -7.935221|    0.824239|    0.012016|
|        5299|   -6.048523|   -7.938984|    0.824239|    0.012016|
|        5300|   -6.054902|   -7.942801|    0.824239|    0.012016|
|        5301|   -6.060829|   -7.946690|    0.824239|    0.012016|
|        5302|   -6.066276|   -7.950662|    0.824240|    0.012016|
|        5303|   -6.071230|   -7.954730|    0.824240|    0.012016|
|        5304|   -6.075688|   -7.958904|    0.824240|    0.012016|
|        5305|   -6.079663|   -7.963190|    0.824240|    0.012016|
|        5306|   -6.083178|   -7.967593|    0.824240|    0.012016|
|        5307|   -6.086265|   -7.972116|    0.824240|    0.012016|
|        5308|   -6.088967|   -7.976762|    0.824240|    0.012015|
|        5309|   -6.091332|   -7.981531|    0.824241|    0.012015|
|        5310|   -6.093417|   -7.986425|    0.824241|    0.012015|
|        5311|   -6.095280|   -7.991442|    0.824241|    0.012015|
|        5312|   -6.096980|   -7.996583|    0.824241|    0.012015|
|        5313|   -6.098576|   -8.001849|    0.824241|    0.012016|
|        5314|   -6.100125|   -8.007242|    0.824241|    0.012016|
|        5315|   -6.101682|   -8.012765|    0.824241|    0.012016|
|        5316|   -6.103296|   -8.018420|    0.824242|    0.012016|
|        5317|   -6.105013|   -8.024210|    0.824242|    0.012016|
|        5318|   -6.106871|   -8.030139|    0.824242|    0.012016|
|        5319|   -6.108902|   -8.036209|    0.824242|    0.012016|
|        5320|   -6.111132|   -8.042424|    0.824242|    0.012016|
|        5321|   -6.113580|   -8.048785|    0.824242|    0.012016|
|        5322|   -6.116257|   -8.055292|    0.824243|    0.012016|
|        5323|   -6.119169|   -8.061946|    0.824243|    0.012016|
|        5324|   -6.122314|   -8.068745|    0.824243|    0.012016|
|        5325|   -6.125683|   -8.075686|    0.824243|    0.012016|
|        5326|   -6.129262|   -8.082766|    0.824243|    0.012016|
|        5327|   -6.133030|   -8.089979|    0.824244|    0.012016|
|        5328|   -6.136960|   -8.097318|    0.824244|    0.012016|
|        5329|   -6.141021|   -8.104774|    0.824244|    0.012016|
|        5330|   -6.145178|   -8.112339|    0.824244|    0.012017|
|        5331|   -6.149392|   -8.120000|    0.824244|    0.012017|
|        5332|   -6.153619|   -8.127748|    0.824245|    0.012017|
|        5333|   -6.157819|   -8.135571|    0.824245|    0.012017|
|        5334|   -6.161947|   -8.143456|    0.824245|    0.012017|
|        5335|   -6.165961|   -8.151392|    0.824245|    0.012017|
|        5336|   -6.169823|   -8.159369|    0.824245|    0.012017|
|        5337|   -6.173497|   -8.167381|    0.824245|    0.012017|
|        5338|   -6.176954|   -8.175419|    0.824246|    0.012017|
|        5339|   -6.180170|   -8.183473|    0.824246|    0.012017|
|        5340|   -6.183129|   -8.191538|    0.824246|    0.012017|
|        5341|   -6.185824|   -8.199607|    0.824246|    0.012018|
|        5342|   -6.188257|   -8.207677|    0.824246|    0.012018|
|        5343|   -6.190436|   -8.215746|    0.824246|    0.012018|
|        5344|   -6.192380|   -8.223817|    0.824247|    0.012018|
|        5345|   -6.194113|   -8.231891|    0.824247|    0.012018|
|        5346|   -6.195666|   -8.239974|    0.824247|    0.012018|
|        5347|   -6.197076|   -8.248073|    0.824247|    0.012018|
|        5348|   -6.198382|   -8.256195|    0.824247|    0.012018|
|        5349|   -6.199629|   -8.264348|    0.824247|    0.012018|
|        5350|   -6.200861|   -8.272543|    0.824247|    0.012018|
|        5351|   -6.202121|   -8.280787|    0.824248|    0.012018|
|        5352|   -6.203453|   -8.289089|    0.824248|    0.012018|
|        5353|   -6.204899|   -8.297456|    0.824248|    0.012018|
|        5354|   -6.206497|   -8.305896|    0.824248|    0.012018|
|        5355|   -6.208284|   -8.314413|    0.824248|    0.012018|
|        5356|   -6.210290|   -8.323011|    0.824248|    0.012018|
|        5357|   -6.212544|   -8.331693|    0.824248|    0.012018|
|        5358|   -6.215068|   -8.340458|    0.824248|    0.012018|
|        5359|   -6.217880|   -8.349305|    0.824248|    0.012018|
|        5360|   -6.220994|   -8.358227|    0.824248|    0.012018|
|        5361|   -6.224419|   -8.367221|    0.824248|    0.012018|
|        5362|   -6.228157|   -8.376278|    0.824248|    0.012018|
|        5363|   -6.232207|   -8.385390|    0.824248|    0.012018|
|        5364|   -6.236563|   -8.394547|    0.824249|    0.012018|
|        5365|   -6.241213|   -8.403739|    0.824249|    0.012018|
|        5366|   -6.246139|   -8.412950|    0.824249|    0.012018|
|        5367|   -6.251322|   -8.422167|    0.824249|    0.012018|
|        5368|   -6.256734|   -8.431378|    0.824249|    0.012018|
|        5369|   -6.262344|   -8.440569|    0.824249|    0.012018|
|        5370|   -6.268116|   -8.449726|    0.824249|    0.012018|
|        5371|   -6.274010|   -8.458838|    0.824249|    0.012018|
|        5372|   -6.279983|   -8.467887|    0.824249|    0.012018|
|        5373|   -6.285989|   -8.476857|    0.824249|    0.012018|
|        5374|   -6.291980|   -8.485730|    0.824249|    0.012018|
|        5375|   -6.297906|   -8.494488|    0.824249|    0.012018|
|        5376|   -6.303717|   -8.503116|    0.824249|    0.012018|
|        5377|   -6.309363|   -8.511597|    0.824249|    0.012018|
|        5378|   -6.314797|   -8.519917|    0.824249|    0.012018|
|        5379|   -6.319975|   -8.528065|    0.824249|    0.012018|
|        5380|   -6.324857|   -8.536030|    0.824249|    0.012018|
|        5381|   -6.329407|   -8.543803|    0.824249|    0.012018|
|        5382|   -6.333599|   -8.551379|    0.824249|    0.012017|
|        5383|   -6.337412|   -8.558755|    0.824249|    0.012017|
|        5384|   -6.340831|   -8.565930|    0.824249|    0.012017|
|        5385|   -6.343851|   -8.572906|    0.824249|    0.012017|
|        5386|   -6.346474|   -8.579687|    0.824249|    0.012017|
|        5387|   -6.348709|   -8.586279|    0.824249|    0.012017|
|        5388|   -6.350570|   -8.592686|    0.824250|    0.012017|
|        5389|   -6.352076|   -8.598915|    0.824250|    0.012017|
|        5390|   -6.353253|   -8.604971|    0.824250|    0.012017|
|        5391|   -6.354126|   -8.610855|    0.824250|    0.012017|
|        5392|   -6.354725|   -8.616569|    0.824250|    0.012017|
|        5393|   -6.355079|   -8.622111|    0.824250|    0.012016|
|        5394|   -6.355217|   -8.627476|    0.824250|    0.012016|
|        5395|   -6.355166|   -8.632655|    0.824251|    0.012016|
|        5396|   -6.354954|   -8.637638|    0.824251|    0.012016|
|        5397|   -6.354603|   -8.642412|    0.824251|    0.012016|
|        5398|   -6.354136|   -8.646961|    0.824251|    0.012016|
|        5399|   -6.353572|   -8.651269|    0.824251|    0.012016|
|        5400|   -6.352925|   -8.655319|    0.824252|    0.012016|
|        5401|   -6.352211|   -8.659095|    0.824252|    0.012016|
|        5402|   -6.351441|   -8.662585|    0.824252|    0.012016|
|        5403|   -6.350622|   -8.665779|    0.824252|    0.012015|
|        5404|   -6.349762|   -8.668671|    0.824252|    0.012015|
|        5405|   -6.348867|   -8.671261|    0.824253|    0.012015|
|        5406|   -6.347942|   -8.673553|    0.824253|    0.012015|
|        5407|   -6.346988|   -8.675556|    0.824253|    0.012015|
|        5408|   -6.346010|   -8.677286|    0.824253|    0.012015|
|        5409|   -6.345009|   -8.678764|    0.824254|    0.012015|
|        5410|   -6.343987|   -8.680014|    0.824254|    0.012015|
|        5411|   -6.342947|   -8.681064|    0.824254|    0.012015|
|        5412|   -6.341891|   -8.681948|    0.824254|    0.012015|
|        5413|   -6.340821|   -8.682696|    0.824254|    0.012015|
|        5414|   -6.339741|   -8.683344|    0.824255|    0.012015|
|        5415|   -6.338655|   -8.683923|    0.824255|    0.012015|
|        5416|   -6.337566|   -8.684465|    0.824255|    0.012014|
|        5417|   -6.336481|   -8.685000|    0.824255|    0.012014|
|        5418|   -6.335403|   -8.685553|    0.824255|    0.012014|
|        5419|   -6.334340|   -8.686146|    0.824256|    0.012014|
|        5420|   -6.333298|   -8.686797|    0.824256|    0.012014|
|        5421|   -6.332286|   -8.687521|    0.824256|    0.012014|
|        5422|   -6.331312|   -8.688328|    0.824256|    0.012014|
|        5423|   -6.330385|   -8.689224|    0.824256|    0.012014|
|        5424|   -6.329515|   -8.690212|    0.824257|    0.012014|
|        5425|   -6.328714|   -8.691289|    0.824257|    0.012014|
|        5426|   -6.327992|   -8.692452|    0.824257|    0.012014|
|        5427|   -6.327361|   -8.693695|    0.824257|    0.012014|
|        5428|   -6.326836|   -8.695012|    0.824257|    0.012014|
|        5429|   -6.326429|   -8.696396|    0.824257|    0.012014|
|        5430|   -6.326153|   -8.697840|    0.824257|    0.012014|
|        5431|   -6.326023|   -8.699338|    0.824258|    0.012014|
|        5432|   -6.326054|   -8.700884|    0.824258|    0.012014|
|        5433|   -6.326259|   -8.702473|    0.824258|    0.012014|
|        5434|   -6.326652|   -8.704105|    0.824258|    0.012014|
|        5435|   -6.327247|   -8.705778|    0.824258|    0.012014|
|        5436|   -6.328058|   -8.707495|    0.824258|    0.012014|
|        5437|   -6.329096|   -8.709259|    0.824258|    0.012014|
|        5438|   -6.330374|   -8.711075|    0.824258|    0.012014|
|        5439|   -6.331900|   -8.712948|    0.824259|    0.012014|
|        5440|   -6.333684|   -8.714882|    0.824259|    0.012014|
|        5441|   -6.335732|   -8.716889|    0.824259|    0.012014|
|        5442|   -6.338049|   -8.718978|    0.824259|    0.012015|
|        5443|   -6.340638|   -8.721161|    0.824259|    0.012015|
|        5444|   -6.343500|   -8.723450|    0.824259|    0.012015|
|        5445|   -6.346633|   -8.725860|    0.824259|    0.012015|
|        5446|   -6.350030|   -8.728401|    0.824259|    0.012015|
|        5447|   -6.353685|   -8.731083|    0.824259|    0.012015|
|        5448|   -6.357586|   -8.733916|    0.824259|    0.012015|
|        5449|   -6.361718|   -8.736904|    0.824259|    0.012015|
|        5450|   -6.366064|   -8.740055|    0.824259|    0.012015|
|        5451|   -6.370602|   -8.743372|    0.824259|    0.012015|
|        5452|   -6.375306|   -8.746851|    0.824259|    0.012015|
|        5453|   -6.380149|   -8.750490|    0.824259|    0.012015|
|        5454|   -6.385098|   -8.754280|    0.824259|    0.012015|
|        5455|   -6.390118|   -8.758215|    0.824259|    0.012015|
|        5456|   -6.395171|   -8.762286|    0.824259|    0.012016|
|        5457|   -6.400216|   -8.766480|    0.824259|    0.012016|
|        5458|   -6.405210|   -8.770785|    0.824259|    0.012016|
|        5459|   -6.410111|   -8.775188|    0.824259|    0.012016|
|        5460|   -6.414873|   -8.779671|    0.824259|    0.012016|
|        5461|   -6.419451|   -8.784219|    0.824259|    0.012016|
|        5462|   -6.423803|   -8.788812|    0.824259|    0.012016|
|        5463|   -6.427888|   -8.793433|    0.824259|    0.012016|
|        5464|   -6.431670|   -8.798061|    0.824259|    0.012016|
|        5465|   -6.435114|   -8.802677|    0.824259|    0.012016|
|        5466|   -6.438193|   -8.807261|    0.824259|    0.012016|
|        5467|   -6.440886|   -8.811791|    0.824259|    0.012016|
|        5468|   -6.443178|   -8.816247|    0.824259|    0.012016|
|        5469|   -6.445061|   -8.820609|    0.824258|    0.012016|
|        5470|   -6.446536|   -8.824856|    0.824258|    0.012017|
|        5471|   -6.447609|   -8.828970|    0.824258|    0.012017|
|        5472|   -6.448293|   -8.832931|    0.824258|    0.012017|
|        5473|   -6.448610|   -8.836720|    0.824258|    0.012017|
|        5474|   -6.448584|   -8.840321|    0.824258|    0.012017|
|        5475|   -6.448247|   -8.843717|    0.824258|    0.012017|
|        5476|   -6.447632|   -8.846892|    0.824258|    0.012017|
|        5477|   -6.446778|   -8.849832|    0.824258|    0.012017|
|        5478|   -6.445721|   -8.852524|    0.824257|    0.012017|
|        5479|   -6.444502|   -8.854956|    0.824257|    0.012017|
|        5480|   -6.443160|   -8.857119|    0.824257|    0.012017|
|        5481|   -6.441734|   -8.859004|    0.824257|    0.012017|
|        5482|   -6.440262|   -8.860606|    0.824257|    0.012017|
|        5483|   -6.438779|   -8.861922|    0.824257|    0.012017|
|        5484|   -6.437319|   -8.862955|    0.824257|    0.012017|
|        5485|   -6.435914|   -8.863706|    0.824257|    0.012017|
|        5486|   -6.434592|   -8.864184|    0.824257|    0.012017|
|        5487|   -6.433378|   -8.864399|    0.824256|    0.012017|
|        5488|   -6.432296|   -8.864363|    0.824256|    0.012017|
|        5489|   -6.431365|   -8.864091|    0.824256|    0.012017|
|        5490|   -6.430605|   -8.863601|    0.824256|    0.012017|
|        5491|   -6.430029|   -8.862914|    0.824256|    0.012017|
|        5492|   -6.429650|   -8.862049|    0.824256|    0.012017|
|        5493|   -6.429480|   -8.861031|    0.824256|    0.012017|
|        5494|   -6.429526|   -8.859883|    0.824256|    0.012017|
|        5495|   -6.429794|   -8.858630|    0.824256|    0.012017|
|        5496|   -6.430289|   -8.857297|    0.824256|    0.012017|
|        5497|   -6.431014|   -8.855908|    0.824256|    0.012017|
|        5498|   -6.431969|   -8.854488|    0.824256|    0.012017|
|        5499|   -6.433155|   -8.853061|    0.824256|    0.012002|
+-----------------------------------------------------------------------+
|Fixed CL Mode (Finite Difference)       |Value                         |
+-----------------------------------------------------------------------+
|Delta CL / Delta AoA                    |0.255588                      |
|Delta CD / Delta CL                     |0.0187925                     |
|Delta CMz / Delta CL                    |0.0172568                     |
+-----------------------------------------------------------------------+
Writing Flow Meta-Data file: flow.meta

----------------------------- Solver Exit -------------------------------

Maximum number of iterations reached (ITER = 5500) before convergence.
+-----------------------------------------------------------------------+
|      Convergence Field     |     Value    |   Criterion  |  Converged |
+-----------------------------------------------------------------------+
|                    rms[Rho]|      -6.43316|         < -12|          No|
+-----------------------------------------------------------------------+
-------------------------------------------------------------------------

--------------------------- Finalizing Solver ---------------------------
Deleted CNumerics container.
Deleted CIntegration container.
Deleted CSolver container.
Deleted CIteration container.
Deleted CInterface container.
Deleted CGeometry container.
Deleted CFreeFormDefBox class.
Deleted CSurfaceMovement class.
Deleted CVolumetricMovement class.
Deleted CConfig container.
Deleted nInst container.
Deleted COutput class.
-------------------------------------------------------------------------

------------------------- Exit Success (SU2_CFD) ------------------------


-------------------------------------------------------------------------
|    ___ _   _ ___                                                      |
|   / __| | | |_  )   Release 8.0.0 "Harrier"                           |
|   \__ \ |_| |/ /                                                      |
|   |___/\___//___|   Suite (Solution Exporting Code)                   |
|                                                                       |
-------------------------------------------------------------------------
| SU2 Project Website: https://su2code.github.io                        |
|                                                                       |
| The SU2 Project is maintained by the SU2 Foundation                   |
| (http://su2foundation.org)                                            |
-------------------------------------------------------------------------
| Copyright 2012-2023, SU2 Contributors                                 |
|                                                                       |
| SU2 is free software; you can redistribute it and/or                  |
| modify it under the terms of the GNU Lesser General Public            |
| License as published by the Free Software Foundation; either          |
| version 2.1 of the License, or (at your option) any later version.    |
|                                                                       |
| SU2 is distributed in the hope that it will be useful,                |
| but WITHOUT ANY WARRANTY; without even the implied warranty of        |
| MERCHANTABILITY or FITNESS FOR A PARTICULAR PURPOSE. See the GNU      |
| Lesser General Public License for more details.                       |
|                                                                       |
| You should have received a copy of the GNU Lesser General Public      |
| License along with SU2. If not, see <http://www.gnu.org/licenses/>.   |
-------------------------------------------------------------------------

----------------- Physical Case Definition ( Zone 0 ) -------------------
Input mesh file name: mesh_RAE2822_turb_deform.su2

-------------------- Output Information ( Zone 0 ) ----------------------
The tabular file format is CSV (.csv).
Flow variables file name: flow.

------------- Config File Boundary Information ( Zone 0 ) ---------------
+-----------------------------------------------------------------------+
|                        Marker Type|                        Marker Name|
+-----------------------------------------------------------------------+
|                          Far-field|                           FARFIELD|
+-----------------------------------------------------------------------+
|                     Heat flux wall|                            AIRFOIL|
+-----------------------------------------------------------------------+
Two dimensional problem.
13937 grid points before partitioning.
22842 volume elements before partitioning.
2 surface markers.
192 boundary elements in index 0 (Marker = AIRFOIL).
40 boundary elements in index 1 (Marker = FARFIELD).
Executing the partitioning functions.
Building the graph adjacency structure.
Calling ParMETIS... graph partitioning complete (831 edge cuts).
Distributing ParMETIS coloring.
Rebalancing vertices.
Rebalancing volume element connectivity.
Rebalancing markers and surface elements.
14875 vertices including ghost points. 
23674 interior elements including halo cells. 
18780 triangles.
4894 quadrilaterals.
Establishing MPI communication patterns.
Identify vertices.
Storing a mapping from global to local point index.

------------------------- Solution Postprocessing -----------------------
Reading and storing the solution from restart_flow.
Volume output fields: COORDINATES, SOLUTION
  Info: Ignoring the following screen output fields:
  RMS_DENSITY, RMS_NU_TILDE, LIFT, DRAG
Screen output fields: INNER_ITER
  Info: Ignoring the following history output groups:
  RMS_RES, AERO_COEFF
History output group(s): ITER
Warning: No (valid) fields chosen for convergence monitoring. Convergence monitoring inactive.
Warning: No (valid) fields chosen for time convergence monitoring. Time convergence monitoring inactive.
|Paraview                           |flow.vtu                           |
|Paraview surface                   |surface_flow.vtu                   |
|CSV file                           |surface_flow.csv                   |

------------------------- Finalize Solver -------------------------
Deleted CGeometry container.
Deleted CSolver class.
Deleted CConfig container.
Deleted COutput class.

Completed in 0.017325 seconds on 6 cores.

------------------------- Exit Success (SU2_SOL) ------------------------

