
-------------------------------------------------------------------------
|    ___ _   _ ___                                                      |
|   / __| | | |_  )   Release 8.0.0 "Harrier"                           |
|   \__ \ |_| |/ /                                                      |
|   |___/\___//___|   Suite (Computational Fluid Dynamics Code)         |
|                                                                       |
-------------------------------------------------------------------------
| SU2 Project Website: https://su2code.github.io                        |
|                                                                       |
| The SU2 Project is maintained by the SU2 Foundation                   |
| (http://su2foundation.org)                                            |
-------------------------------------------------------------------------
| Copyright 2012-2023, SU2 Contributors                                 |
|                                                                       |
| SU2 is free software; you can redistribute it and/or                  |
| modify it under the terms of the GNU Lesser General Public            |
| License as published by the Free Software Foundation; either          |
| version 2.1 of the License, or (at your option) any later version.    |
|                                                                       |
| SU2 is distributed in the hope that it will be useful,                |
| but WITHOUT ANY WARRANTY; without even the implied warranty of        |
| MERCHANTABILITY or FITNESS FOR A PARTICULAR PURPOSE. See the GNU      |
| Lesser General Public License for more details.                       |
|                                                                       |
| You should have received a copy of the GNU Lesser General Public      |
| License along with SU2. If not, see <http://www.gnu.org/licenses/>.   |
-------------------------------------------------------------------------

Parsing config file for zone 0

----------------- Physical Case Definition ( Zone 0 ) -------------------
Compressible RANS equations.
Turbulence model: Spalart-Allmaras-noft2
Hybrid RANS/LES: No Hybrid RANS/LES
Mach number: 0.734.
Angle of attack (AoA): 2.31 deg, and angle of sideslip (AoS): 0 deg.
Reynolds number: 6.5e+06. Reference length 1.
Fixed CL mode, target value: 0.824.
Reading and writing binary SU2 native restart files.
Read flow solution from: solution_flow.dat.
Dimensional simulation.
The reference area is 1 m^2.
The semi-span will be computed using the max y(3D) value.
The reference length is 1 m.
Reference origin for moment evaluation is (0.25, 0, 0).
Surface(s) where the force coefficients are evaluated: AIRFOIL.

Surface(s) plotted in the output file: AIRFOIL.
Surface(s) affected by the design variables: AIRFOIL.
Input mesh file name: mesh_RAE2822_turb_deform.su2

--------------- Space Numerical Integration ( Zone 0 ) ------------------
Jameson-Schmidt-Turkel scheme (2nd order in space) for the flow inviscid terms.
JST viscous coefficients (2nd & 4th): 0.5, 0.02.
The method includes a grid stretching correction (p = 0.3).
Scalar upwind solver for the turbulence model.
First order integration in space.
Average of gradients with correction (viscous flow terms).
Average of gradients with correction (viscous turbulence terms).
Gradient for viscous and source terms: inverse-distance weighted Least-Squares.

--------------- Time Numerical Integration  ( Zone 0 ) ------------------
Local time stepping (steady state simulation).
Euler implicit method for the flow equations.
FGMRES is used for solving the linear system.
Using a ILU(0) preconditioning.
Convergence criteria of the linear solver: 1e-06.
Max number of linear iterations: 10.
No CFL adaptation.
Courant-Friedrichs-Lewy number:       10
Euler implicit time integration for the turbulence model.

------------------ Convergence Criteria  ( Zone 0 ) ---------------------
Maximum number of solver subiterations: 5500.
Begin convergence monitoring at iteration 10.
Residual minimum value: 1e-12.
Cauchy series min. value: 1e-06.
Number of Cauchy elements: 100.
Begin windowed time average at iteration 0.

-------------------- Output Information ( Zone 0 ) ----------------------
File writing frequency: 
+------------------------------------+
|                     File| Frequency|
+------------------------------------+
|                  RESTART|     10000|
|                 PARAVIEW|     10000|
|         SURFACE_PARAVIEW|     10000|
|              SURFACE_CSV|     10000|
+------------------------------------+
Writing the convergence history file every 1 inner iterations.
Writing the screen convergence history every 1 inner iterations.
The tabular file format is CSV (.csv).
Convergence history file name: history_direct.
Forces breakdown file name: forces_breakdown.dat.
Surface file name: surface_flow.
Volume file name: flow.
Restart file name: restart_flow.dat.

------------- Config File Boundary Information ( Zone 0 ) ---------------
+-----------------------------------------------------------------------+
|                        Marker Type|                        Marker Name|
+-----------------------------------------------------------------------+
|                          Far-field|                           FARFIELD|
+-----------------------------------------------------------------------+
|                     Heat flux wall|                            AIRFOIL|
+-----------------------------------------------------------------------+

-------------------- Output Preprocessing ( Zone 0 ) --------------------

WARNING: SURFACE_PRESSURE_DROP can only be computed for at least 2 surfaces (outlet, inlet, ...)

Screen output fields: INNER_ITER, RMS_DENSITY, RMS_NU_TILDE, LIFT, DRAG
History output group(s): ITER, RMS_RES, AERO_COEFF
Convergence field(s): RMS_DENSITY
Warning: No (valid) fields chosen for time convergence monitoring. Time convergence monitoring inactive.
Volume output fields: COORDINATES, SOLUTION, PRIMITIVE

------------------- Geometry Preprocessing ( Zone 0 ) -------------------
Two dimensional problem.
13937 grid points before partitioning.
22842 volume elements before partitioning.
2 surface markers.
192 boundary elements in index 0 (Marker = AIRFOIL).
40 boundary elements in index 1 (Marker = FARFIELD).
Executing the partitioning functions.
Building the graph adjacency structure.
Calling ParMETIS... graph partitioning complete (831 edge cuts).
Distributing ParMETIS coloring.
Rebalancing vertices.
Rebalancing volume element connectivity.
Rebalancing markers and surface elements.
14875 vertices including ghost points. 
23674 interior elements including halo cells. 
18780 triangles.
4894 quadrilaterals.
Establishing MPI communication patterns.
Setting point connectivity.
Renumbering points (Reverse Cuthill McKee Ordering).
Recomputing point connectivity.
Setting element connectivity.
Checking the numerical grid orientation.
All volume elements are correctly orientend.
All surface elements are correctly orientend.
Identifying edges and vertices.
Setting the control volume structure.
Area of the computational grid: 32209.9.
Searching for the closest normal neighbors to the surfaces.
Storing a mapping from global to local point index.
Compute the surface curvature.
Max K: 188.485. Mean K: 8.08531. Standard deviation K: 25.4478.
Checking for periodicity.
Computing mesh quality statistics for the dual control volumes.
+--------------------------------------------------------------+
|           Mesh Quality Metric|        Minimum|        Maximum|
+--------------------------------------------------------------+
|    Orthogonality Angle (deg.)|        74.8773|        89.9999|
|     CV Face Area Aspect Ratio|        1.00514|        3358.36|
|           CV Sub-Volume Ratio|        1.00047|        1217.92|
+--------------------------------------------------------------+
Finding max control volume width.
Communicating number of neighbors.
Wetted area = 2.02145 m.
Area projection in the x-plane = 0.12617 m, y-plane = 0.995873 m.
Max. coordinate in the x-direction = 1 m, y-direction = 0.0619831 m.
Min. coordinate in the x-direction = 0 m, y-direction = -0.0607894 m.
Computing wall distances.

-------------------- Solver Preprocessing ( Zone 0 ) --------------------
WARNING: AoA in the solution file (2.78035 deg.) +
         AoA offset in mesh file (0 deg.) = 2.78035 deg.
WARNING: SU2 will use the dCD/dCL provided in the direct solution file: 0.0181229.
WARNING: SU2 will use the dCMz/dCL provided in the direct solution file: 0.00572032.
Viscous flow: Computing pressure using the ideal gas law
based on the free-stream temperature and a density computed
from the Reynolds number.
Force coefficients computed using free-stream values.

-- Models:
+------------------------------------------------------------------------------+
|          Viscosity Model|        Conductivity Model|              Fluid Model|
+------------------------------------------------------------------------------+
|               SUTHERLAND|          CONSTANT_PRANDTL|             STANDARD_AIR|
+------------------------------------------------------------------------------+
-- Fluid properties:
+------------------------------------------------------------------------------+
|                  Name|    Dim. value|    Ref. value|      Unit|Non-dim. value|
+------------------------------------------------------------------------------+
|        Ref. Viscosity|     1.716e-05|             1|   N.s/m^2|     1.716e-05|
|      Sutherland Temp.|        273.15|             1|         K|        273.15|
|     Sutherland Const.|         110.4|             1|         K|         110.4|
+------------------------------------------------------------------------------+
|        Prandtl (Lam.)|             -|             -|         -|          0.71|
|       Prandtl (Turb.)|             -|             -|         -|           0.9|
+------------------------------------------------------------------------------+
|          Gas Constant|       287.058|             1|  N.m/kg.K|       287.058|
|      Spec. Heat Ratio|             -|             -|         -|           1.4|
+------------------------------------------------------------------------------+
-- Initial and free-stream conditions:
+------------------------------------------------------------------------------+
|                  Name|    Dim. value|    Ref. value|      Unit|Non-dim. value|
+------------------------------------------------------------------------------+
|       Static Pressure|         38515|             1|        Pa|         38515|
|               Density|      0.465631|             1|    kg/m^3|      0.465631|
|           Temperature|        288.15|             1|         K|        288.15|
|          Total Energy|        237984|             1|   m^2/s^2|        237984|
|            Velocity-X|       249.484|             1|       m/s|       249.484|
|            Velocity-Y|       12.1161|             1|       m/s|       12.1161|
|    Velocity Magnitude|       249.778|             1|       m/s|       249.778|
+------------------------------------------------------------------------------+
|             Viscosity|    1.7893e-05|             1|   N.s/m^2|    1.7893e-05|
|          Conductivity|             -|             1|   W/m^2.K|             -|
|     Turb. Kin. Energy|       233.959|             1|   m^2/s^2|       233.959|
|     Spec. Dissipation|        608834|             1|       1/s|        608834|
+------------------------------------------------------------------------------+
|           Mach Number|             -|             -|         -|         0.734|
|       Reynolds Number|             -|             -|         -|       6.5e+06|
+------------------------------------------------------------------------------+
Initialize Jacobian structure (Navier-Stokes). MG level: 0.
Initialize Jacobian structure (SA model).

------------------- Numerics Preprocessing ( Zone 0 ) -------------------

----------------- Integration Preprocessing ( Zone 0 ) ------------------

------------------- Iteration Preprocessing ( Zone 0 ) ------------------
Euler/Navier-Stokes/RANS fluid iteration.

------------------------------ Begin Solver -----------------------------

Simulation Run using the Single-zone Driver
WARNING: SU2 was not compiled for an AVX-capable architecture. Performance could be better,
         see https://su2code.github.io/docs_v7/Build-SU2-Linux-MacOS/#compiler-optimizations
+----------------------------------------------------------------+
|  Inner_Iter|    rms[Rho]|     rms[nu]|          CL|          CD|
+----------------------------------------------------------------+
|           0|   -5.377755|   -6.550802|    0.823971|    0.012017|
|           1|   -5.435156|   -6.641038|    0.823951|    0.012013|
|           2|   -5.494409|   -6.744195|    0.823940|    0.012011|
|           3|   -5.535586|   -6.857370|    0.823935|    0.012011|
|           4|   -5.562884|   -6.979461|    0.823934|    0.012011|
|           5|   -5.582499|   -7.101174|    0.823935|    0.012011|
|           6|   -5.596028|   -7.193141|    0.823935|    0.012010|
|           7|   -5.603234|   -7.224223|    0.823936|    0.012010|
|           8|   -5.604092|   -7.210574|    0.823935|    0.012008|
|           9|   -5.598987|   -7.189949|    0.823934|    0.012007|
|          10|   -5.588792|   -7.180047|    0.823933|    0.012005|
|          11|   -5.575128|   -7.181520|    0.823932|    0.012003|
|          12|   -5.560128|   -7.187413|    0.823932|    0.012001|
|          13|   -5.545766|   -7.188843|    0.823932|    0.011999|
|          14|   -5.533296|   -7.180161|    0.823933|    0.011997|
|          15|   -5.523102|   -7.161943|    0.823935|    0.011995|
|          16|   -5.514893|   -7.138977|    0.823937|    0.011993|
|          17|   -5.508059|   -7.116131|    0.823940|    0.011991|
|          18|   -5.502020|   -7.096173|    0.823943|    0.011989|
|          19|   -5.496459|   -7.079747|    0.823946|    0.011987|
|          20|   -5.491342|   -7.066103|    0.823950|    0.011986|
|          21|   -5.486813|   -7.053882|    0.823953|    0.011984|
|          22|   -5.483025|   -7.041770|    0.823956|    0.011983|
|          23|   -5.480026|   -7.028983|    0.823959|    0.011982|
|          24|   -5.477730|   -7.015492|    0.823961|    0.011980|
|          25|   -5.475957|   -7.001936|    0.823962|    0.011980|
|          26|   -5.474505|   -6.989337|    0.823963|    0.011979|
|          27|   -5.473203|   -6.978760|    0.823963|    0.011978|
|          28|   -5.471944|   -6.971080|    0.823963|    0.011977|
|          29|   -5.470685|   -6.966869|    0.823962|    0.011977|
|          30|   -5.469433|   -6.966373|    0.823961|    0.011977|
|          31|   -5.468226|   -6.969540|    0.823959|    0.011976|
|          32|   -5.467130|   -6.976052|    0.823958|    0.011976|
|          33|   -5.466218|   -6.985363|    0.823956|    0.011976|
|          34|   -5.465566|   -6.996729|    0.823954|    0.011975|
|          35|   -5.465235|   -7.009252|    0.823953|    0.011975|
|          36|   -5.465259|   -7.021942|    0.823952|    0.011975|
|          37|   -5.465636|   -7.033812|    0.823951|    0.011974|
|          38|   -5.466324|   -7.044006|    0.823950|    0.011974|
|          39|   -5.467252|   -7.051929|    0.823951|    0.011973|
|          40|   -5.468334|   -7.057349|    0.823951|    0.011973|
|          41|   -5.469484|   -7.060419|    0.823952|    0.011973|
|          42|   -5.470635|   -7.061611|    0.823954|    0.011972|
|          43|   -5.471745|   -7.061602|    0.823956|    0.011972|
|          44|   -5.472806|   -7.061126|    0.823959|    0.011972|
|          45|   -5.473835|   -7.060869|    0.823962|    0.011971|
|          46|   -5.474869|   -7.061385|    0.823966|    0.011971|
|          47|   -5.475950|   -7.063068|    0.823969|    0.011971|
|          48|   -5.477113|   -7.066135|    0.823973|    0.011971|
|          49|   -5.478381|   -7.070638|    0.823977|    0.011971|
|          50|   -5.479756|   -7.076475|    0.823981|    0.011972|
|          51|   -5.481220|   -7.083414|    0.823985|    0.011972|
|          52|   -5.482740|   -7.091114|    0.823989|    0.011972|
|          53|   -5.484268|   -7.099159|    0.823992|    0.011973|
|          54|   -5.485754|   -7.107097|    0.823996|    0.011974|
|          55|   -5.487146|   -7.114485|    0.823999|    0.011974|
|          56|   -5.488395|   -7.120949|    0.824001|    0.011975|
|          57|   -5.489465|   -7.126220|    0.824003|    0.011976|
|          58|   -5.490325|   -7.130174|    0.824005|    0.011977|
|          59|   -5.490958|   -7.132830|    0.824006|    0.011978|
|          60|   -5.491354|   -7.134333|    0.824007|    0.011979|
|          61|   -5.491513|   -7.134912|    0.824008|    0.011979|
|          62|   -5.491445|   -7.134827|    0.824008|    0.011980|
|          63|   -5.491167|   -7.134326|    0.824008|    0.011981|
|          64|   -5.490701|   -7.133609|    0.824008|    0.011982|
|          65|   -5.490075|   -7.132815|    0.824008|    0.011983|
|          66|   -5.489319|   -7.132014|    0.824007|    0.011984|
|          67|   -5.488466|   -7.131229|    0.824006|    0.011985|
|          68|   -5.487545|   -7.130448|    0.824005|    0.011986|
|          69|   -5.486585|   -7.129652|    0.824004|    0.011987|
|          70|   -5.485607|   -7.128833|    0.824004|    0.011988|
|          71|   -5.484628|   -7.128008|    0.824003|    0.011989|
|          72|   -5.483655|   -7.127225|    0.824002|    0.011990|
|          73|   -5.482693|   -7.126559|    0.824001|    0.011991|
|          74|   -5.481741|   -7.126101|    0.824000|    0.011992|
|          75|   -5.480791|   -7.125949|    0.823999|    0.011993|
|          76|   -5.479837|   -7.126191|    0.823998|    0.011993|
|          77|   -5.478868|   -7.126900|    0.823996|    0.011994|
|          78|   -5.477874|   -7.128122|    0.823995|    0.011995|
|          79|   -5.476845|   -7.129882|    0.823994|    0.011996|
|          80|   -5.475770|   -7.132178|    0.823993|    0.011997|
|          81|   -5.474638|   -7.134992|    0.823992|    0.011998|
|          82|   -5.473442|   -7.138293|    0.823991|    0.011999|
|          83|   -5.472176|   -7.142045|    0.823990|    0.011999|
|          84|   -5.470835|   -7.146209|    0.823989|    0.012000|
|          85|   -5.469421|   -7.150748|    0.823988|    0.012001|
|          86|   -5.467940|   -7.155629|    0.823987|    0.012002|
|          87|   -5.466404|   -7.160819|    0.823986|    0.012002|
|          88|   -5.464829|   -7.166290|    0.823985|    0.012003|
|          89|   -5.463235|   -7.172010|    0.823984|    0.012003|
|          90|   -5.461648|   -7.177947|    0.823983|    0.012004|
|          91|   -5.460092|   -7.184065|    0.823983|    0.012005|
|          92|   -5.458591|   -7.190324|    0.823982|    0.012005|
|          93|   -5.457169|   -7.196680|    0.823981|    0.012006|
|          94|   -5.455847|   -7.203084|    0.823980|    0.012006|
|          95|   -5.454640|   -7.209490|    0.823980|    0.012007|
|          96|   -5.453563|   -7.215846|    0.823979|    0.012008|
|          97|   -5.452623|   -7.222106|    0.823979|    0.012008|
|          98|   -5.451826|   -7.228224|    0.823978|    0.012009|
|          99|   -5.451170|   -7.234159|    0.823977|    0.012009|
|         100|   -5.450651|   -7.239873|    0.823977|    0.012010|
|         101|   -5.450261|   -7.245335|    0.823976|    0.012012|
+-----------------------------------------------------------------------+
|Fixed CL Mode                           |Value                         |
+-----------------------------------------------------------------------+
|Current CL                              |0.823976                      |
|Target CL                               |0.824                         |
|Previous AOA                            |2.78035                       |
|Changed AoA by                          |0.000117095                   |
+-----------------------------------------------------------------------+
+----------------------------------------------------------------+
|  Inner_Iter|    rms[Rho]|     rms[nu]|          CL|          CD|
+----------------------------------------------------------------+
|         102|   -4.124136|   -7.248039|    0.823975|    0.012012|
|         103|   -4.503591|   -7.254130|    0.823974|    0.012012|
|         104|   -4.735316|   -7.259050|    0.823973|    0.012013|
|         105|   -4.808427|   -7.263486|    0.823972|    0.012013|
|         106|   -4.859495|   -7.267538|    0.823971|    0.012013|
|         107|   -4.924941|   -7.271233|    0.823970|    0.012014|
|         108|   -5.003730|   -7.274590|    0.823968|    0.012014|
|         109|   -5.083379|   -7.277630|    0.823967|    0.012014|
|         110|   -5.149823|   -7.280375|    0.823966|    0.012014|
|         111|   -5.197325|   -7.282850|    0.823964|    0.012014|
|         112|   -5.228094|   -7.285083|    0.823963|    0.012014|
|         113|   -5.245531|   -7.287102|    0.823961|    0.012014|
|         114|   -5.252829|   -7.288941|    0.823959|    0.012014|
|         115|   -5.254525|   -7.290627|    0.823958|    0.012014|
|         116|   -5.255595|   -7.292190|    0.823956|    0.012014|
|         117|   -5.259296|   -7.293654|    0.823954|    0.012014|
|         118|   -5.266278|   -7.295046|    0.823953|    0.012014|
|         119|   -5.275164|   -7.296394|    0.823951|    0.012013|
|         120|   -5.283858|   -7.297728|    0.823950|    0.012013|
|         121|   -5.290843|   -7.299077|    0.823948|    0.012013|
|         122|   -5.295790|   -7.300467|    0.823947|    0.012012|
|         123|   -5.299258|   -7.301927|    0.823945|    0.012012|
|         124|   -5.301980|   -7.303480|    0.823944|    0.012012|
|         125|   -5.304361|   -7.305151|    0.823943|    0.012012|
|         126|   -5.306417|   -7.306961|    0.823942|    0.012011|
|         127|   -5.307972|   -7.308930|    0.823941|    0.012011|
|         128|   -5.308865|   -7.311074|    0.823940|    0.012011|
|         129|   -5.309037|   -7.313409|    0.823939|    0.012010|
|         130|   -5.308530|   -7.315949|    0.823938|    0.012010|
|         131|   -5.307456|   -7.318707|    0.823937|    0.012009|
|         132|   -5.305987|   -7.321691|    0.823936|    0.012009|
|         133|   -5.304336|   -7.324911|    0.823936|    0.012009|
|         134|   -5.302735|   -7.328370|    0.823935|    0.012008|
|         135|   -5.301387|   -7.332072|    0.823935|    0.012008|
|         136|   -5.300434|   -7.336022|    0.823934|    0.012008|
|         137|   -5.299928|   -7.340222|    0.823934|    0.012007|
|         138|   -5.299831|   -7.344674|    0.823934|    0.012007|
|         139|   -5.300034|   -7.349374|    0.823933|    0.012007|
|         140|   -5.300379|   -7.354315|    0.823933|    0.012007|
|         141|   -5.300694|   -7.359490|    0.823933|    0.012006|
|         142|   -5.300825|   -7.364890|    0.823933|    0.012006|
|         143|   -5.300673|   -7.370508|    0.823932|    0.012006|
|         144|   -5.300208|   -7.376341|    0.823932|    0.012005|
|         145|   -5.299475|   -7.382375|    0.823932|    0.012005|
|         146|   -5.298569|   -7.388595|    0.823932|    0.012005|
|         147|   -5.297606|   -7.394981|    0.823932|    0.012005|
|         148|   -5.296693|   -7.401518|    0.823932|    0.012004|
|         149|   -5.295900|   -7.408187|    0.823932|    0.012004|
|         150|   -5.295256|   -7.414972|    0.823932|    0.012004|
|         151|   -5.294744|   -7.421856|    0.823932|    0.012004|
|         152|   -5.294319|   -7.428819|    0.823932|    0.012004|
|         153|   -5.293922|   -7.435849|    0.823933|    0.012003|
|         154|   -5.293496|   -7.442928|    0.823933|    0.012003|
|         155|   -5.293000|   -7.450044|    0.823934|    0.012003|
|         156|   -5.292411|   -7.457187|    0.823934|    0.012003|
|         157|   -5.291730|   -7.464352|    0.823935|    0.012003|
|         158|   -5.290970|   -7.471529|    0.823936|    0.012002|
|         159|   -5.290156|   -7.478708|    0.823937|    0.012002|
|         160|   -5.289315|   -7.485883|    0.823937|    0.012002|
|         161|   -5.288468|   -7.493046|    0.823939|    0.012002|
|         162|   -5.287635|   -7.500190|    0.823940|    0.012002|
|         163|   -5.286824|   -7.507307|    0.823941|    0.012002|
|         164|   -5.286042|   -7.514388|    0.823942|    0.012002|
|         165|   -5.285289|   -7.521423|    0.823943|    0.012002|
|         166|   -5.284563|   -7.528401|    0.823945|    0.012002|
|         167|   -5.283864|   -7.535308|    0.823946|    0.012002|
|         168|   -5.283190|   -7.542130|    0.823948|    0.012002|
|         169|   -5.282542|   -7.548851|    0.823949|    0.012002|
|         170|   -5.281919|   -7.555452|    0.823951|    0.012002|
|         171|   -5.281323|   -7.561915|    0.823952|    0.012002|
|         172|   -5.280756|   -7.568220|    0.823954|    0.012002|
|         173|   -5.280217|   -7.574351|    0.823955|    0.012002|
|         174|   -5.279710|   -7.580290|    0.823957|    0.012002|
|         175|   -5.279236|   -7.586023|    0.823958|    0.012002|
|         176|   -5.278797|   -7.591540|    0.823960|    0.012003|
|         177|   -5.278399|   -7.596832|    0.823961|    0.012003|
|         178|   -5.278048|   -7.601898|    0.823962|    0.012003|
|         179|   -5.277753|   -7.606739|    0.823964|    0.012003|
|         180|   -5.277525|   -7.611361|    0.823965|    0.012003|
|         181|   -5.277380|   -7.615777|    0.823966|    0.012004|
|         182|   -5.277335|   -7.620001|    0.823966|    0.012004|
|         183|   -5.277412|   -7.624055|    0.823967|    0.012004|
|         184|   -5.277636|   -7.627963|    0.823968|    0.012004|
|         185|   -5.278032|   -7.631751|    0.823969|    0.012005|
|         186|   -5.278632|   -7.635448|    0.823969|    0.012005|
|         187|   -5.279466|   -7.639084|    0.823969|    0.012005|
|         188|   -5.280569|   -7.642687|    0.823970|    0.012005|
|         189|   -5.281974|   -7.646287|    0.823970|    0.012006|
|         190|   -5.283716|   -7.649911|    0.823970|    0.012006|
|         191|   -5.285828|   -7.653582|    0.823970|    0.012006|
|         192|   -5.288342|   -7.657321|    0.823970|    0.012007|
|         193|   -5.291286|   -7.661146|    0.823970|    0.012007|
|         194|   -5.294685|   -7.665071|    0.823969|    0.012007|
|         195|   -5.298558|   -7.669104|    0.823969|    0.012008|
|         196|   -5.302919|   -7.673251|    0.823969|    0.012008|
|         197|   -5.307774|   -7.677513|    0.823968|    0.012008|
|         198|   -5.313120|   -7.681888|    0.823968|    0.012009|
|         199|   -5.318944|   -7.686370|    0.823968|    0.012009|
|         200|   -5.325225|   -7.690948|    0.823967|    0.012009|
|         201|   -5.331926|   -7.695613|    0.823966|    0.012012|
+-----------------------------------------------------------------------+
|Fixed CL Mode                           |Value                         |
+-----------------------------------------------------------------------+
|Current CL                              |0.823966                      |
|Target CL                               |0.824                         |
|Previous AOA                            |2.78047                       |
|Changed AoA by                          |0.000164833                   |
+-----------------------------------------------------------------------+
+----------------------------------------------------------------+
|  Inner_Iter|    rms[Rho]|     rms[nu]|          CL|          CD|
+----------------------------------------------------------------+
|         202|   -3.975925|   -7.663463|    0.823966|    0.012012|
|         203|   -4.357846|   -7.685058|    0.823965|    0.012013|
|         204|   -4.594279|   -7.694915|    0.823965|    0.012013|
|         205|   -4.668121|   -7.702510|    0.823964|    0.012013|
|         206|   -4.718912|   -7.709367|    0.823964|    0.012014|
|         207|   -4.785070|   -7.715843|    0.823963|    0.012014|
|         208|   -4.865979|   -7.722049|    0.823962|    0.012014|
|         209|   -4.949019|   -7.728040|    0.823962|    0.012015|
|         210|   -5.019341|   -7.733828|    0.823961|    0.012015|
|         211|   -5.070403|   -7.739389|    0.823961|    0.012015|
|         212|   -5.104329|   -7.744694|    0.823960|    0.012015|
|         213|   -5.124737|   -7.749762|    0.823959|    0.012016|
|         214|   -5.134922|   -7.754642|    0.823959|    0.012016|
|         215|   -5.139603|   -7.759378|    0.823958|    0.012016|
|         216|   -5.144136|   -7.763997|    0.823958|    0.012017|
|         217|   -5.152174|   -7.768503|    0.823957|    0.012017|
|         218|   -5.164587|   -7.772907|    0.823957|    0.012017|
|         219|   -5.179929|   -7.777233|    0.823956|    0.012017|
|         220|   -5.195792|   -7.781515|    0.823956|    0.012018|
|         221|   -5.210297|   -7.785782|    0.823955|    0.012018|
|         222|   -5.222964|   -7.790048|    0.823955|    0.012018|
|         223|   -5.234479|   -7.794309|    0.823955|    0.012018|
|         224|   -5.245793|   -7.798554|    0.823954|    0.012018|
|         225|   -5.257391|   -7.802770|    0.823954|    0.012018|
|         226|   -5.269127|   -7.806947|    0.823954|    0.012018|
|         227|   -5.280466|   -7.811077|    0.823953|    0.012019|
|         228|   -5.290831|   -7.815156|    0.823953|    0.012019|
|         229|   -5.299820|   -7.819185|    0.823953|    0.012019|
|         230|   -5.307284|   -7.823164|    0.823953|    0.012019|
|         231|   -5.313328|   -7.827092|    0.823952|    0.012019|
|         232|   -5.318290|   -7.830969|    0.823952|    0.012019|
|         233|   -5.322696|   -7.834795|    0.823952|    0.012019|
|         234|   -5.327162|   -7.838564|    0.823952|    0.012019|
|         235|   -5.332279|   -7.842273|    0.823952|    0.012019|
|         236|   -5.338490|   -7.845910|    0.823952|    0.012019|
|         237|   -5.346030|   -7.849469|    0.823952|    0.012019|
|         238|   -5.354896|   -7.852938|    0.823952|    0.012019|
|         239|   -5.364862|   -7.856295|    0.823952|    0.012018|
|         240|   -5.375520|   -7.859538|    0.823952|    0.012018|
|         241|   -5.386342|   -7.862673|    0.823952|    0.012018|
|         242|   -5.396782|   -7.865709|    0.823952|    0.012018|
|         243|   -5.406391|   -7.868654|    0.823953|    0.012018|
|         244|   -5.414931|   -7.871520|    0.823953|    0.012018|
|         245|   -5.422423|   -7.874317|    0.823953|    0.012018|
|         246|   -5.429128|   -7.877058|    0.823954|    0.012017|
|         247|   -5.435450|   -7.879752|    0.823954|    0.012017|
|         248|   -5.441816|   -7.882410|    0.823954|    0.012017|
|         249|   -5.448568|   -7.885044|    0.823955|    0.012017|
|         250|   -5.455897|   -7.887662|    0.823955|    0.012017|
|         251|   -5.463828|   -7.890271|    0.823956|    0.012017|
|         252|   -5.472241|   -7.892883|    0.823957|    0.012016|
|         253|   -5.480919|   -7.895509|    0.823957|    0.012016|
|         254|   -5.489611|   -7.898159|    0.823958|    0.012016|
|         255|   -5.498089|   -7.900853|    0.823959|    0.012016|
|         256|   -5.506196|   -7.903612|    0.823960|    0.012015|
|         257|   -5.513862|   -7.906457|    0.823961|    0.012015|
|         258|   -5.521107|   -7.909415|    0.823962|    0.012015|
|         259|   -5.528013|   -7.912523|    0.823963|    0.012015|
|         260|   -5.534696|   -7.915818|    0.823964|    0.012015|
|         261|   -5.541268|   -7.919342|    0.823966|    0.012014|
|         262|   -5.547820|   -7.923130|    0.823967|    0.012014|
|         263|   -5.554409|   -7.927221|    0.823968|    0.012014|
|         264|   -5.561054|   -7.931666|    0.823970|    0.012014|
|         265|   -5.567748|   -7.936508|    0.823971|    0.012014|
|         266|   -5.574462|   -7.941793|    0.823973|    0.012013|
|         267|   -5.581162|   -7.947561|    0.823974|    0.012013|
|         268|   -5.587812|   -7.953845|    0.823976|    0.012013|
|         269|   -5.594380|   -7.960676|    0.823978|    0.012013|
|         270|   -5.600837|   -7.968074|    0.823979|    0.012013|
|         271|   -5.607155|   -7.976047|    0.823981|    0.012012|
|         272|   -5.613307|   -7.984592|    0.823982|    0.012012|
|         273|   -5.619263|   -7.993692|    0.823984|    0.012012|
|         274|   -5.624990|   -8.003307|    0.823986|    0.012012|
|         275|   -5.630450|   -8.013381|    0.823987|    0.012012|
|         276|   -5.635606|   -8.023830|    0.823989|    0.012012|
|         277|   -5.640423|   -8.034542|    0.823990|    0.012012|
|         278|   -5.644867|   -8.045375|    0.823992|    0.012012|
|         279|   -5.648916|   -8.056159|    0.823993|    0.012011|
|         280|   -5.652553|   -8.066697|    0.823995|    0.012011|
|         281|   -5.655773|   -8.076770|    0.823996|    0.012011|
|         282|   -5.658581|   -8.086151|    0.823997|    0.012011|
|         283|   -5.660992|   -8.094616|    0.823999|    0.012011|
|         284|   -5.663030|   -8.101957|    0.824000|    0.012011|
|         285|   -5.664726|   -8.108006|    0.824001|    0.012011|
|         286|   -5.666118|   -8.112650|    0.824002|    0.012011|
|         287|   -5.667248|   -8.115843|    0.824003|    0.012011|
|         288|   -5.668161|   -8.117617|    0.824003|    0.012011|
|         289|   -5.668903|   -8.118074|    0.824004|    0.012011|
|         290|   -5.669518|   -8.117382|    0.824005|    0.012011|
|         291|   -5.670050|   -8.115761|    0.824005|    0.012011|
|         292|   -5.670540|   -8.113460|    0.824006|    0.012011|
|         293|   -5.671026|   -8.110741|    0.824006|    0.012011|
|         294|   -5.671540|   -8.107864|    0.824007|    0.012011|
|         295|   -5.672112|   -8.105073|    0.824007|    0.012011|
|         296|   -5.672767|   -8.102592|    0.824007|    0.012011|
|         297|   -5.673525|   -8.100614|    0.824007|    0.012011|
|         298|   -5.674404|   -8.099302|    0.824007|    0.012011|
|         299|   -5.675418|   -8.098789|    0.824007|    0.012011|
|         300|   -5.676577|   -8.099174|    0.824007|    0.012011|
|         301|   -5.677891|   -8.100532|    0.824007|    0.012011|
+-----------------------------------------------------------------------+
|Fixed CL Mode                           |Value                         |
+-----------------------------------------------------------------------+
|Current CL                              |0.824007                      |
|Target CL                               |0.824                         |
|Previous AOA                            |2.78064                       |
|Changed AoA by                          |-3.528e-05                    |
+-----------------------------------------------------------------------+
+----------------------------------------------------------------+
|  Inner_Iter|    rms[Rho]|     rms[nu]|          CL|          CD|
+----------------------------------------------------------------+
|         302|   -4.644109|   -8.093260|    0.824007|    0.012011|
|         303|   -5.022620|   -8.101760|    0.824007|    0.012011|
|         304|   -5.256246|   -8.107385|    0.824006|    0.012011|
|         305|   -5.329882|   -8.113318|    0.824006|    0.012011|
|         306|   -5.376203|   -8.120012|    0.824006|    0.012011|
|         307|   -5.431086|   -8.127483|    0.824005|    0.012011|
|         308|   -5.491607|   -8.135607|    0.824005|    0.012011|
|         309|   -5.544646|   -8.144206|    0.824005|    0.012012|
|         310|   -5.580481|   -8.153069|    0.824004|    0.012012|
|         311|   -5.600208|   -8.161952|    0.824004|    0.012012|
|         312|   -5.610059|   -8.170605|    0.824004|    0.012012|
|         313|   -5.614668|   -8.178780|    0.824003|    0.012012|
|         314|   -5.616716|   -8.186242|    0.824003|    0.012012|
|         315|   -5.618425|   -8.192762|    0.824003|    0.012012|
|         316|   -5.621744|   -8.198127|    0.824002|    0.012012|
|         317|   -5.627741|   -8.202167|    0.824002|    0.012013|
|         318|   -5.636266|   -8.204768|    0.824002|    0.012013|
|         319|   -5.646223|   -8.205891|    0.824001|    0.012013|
|         320|   -5.656234|   -8.205575|    0.824001|    0.012013|
|         321|   -5.665333|   -8.203930|    0.824001|    0.012013|
|         322|   -5.673289|   -8.201121|    0.824001|    0.012013|
|         323|   -5.680463|   -8.197356|    0.824000|    0.012013|
|         324|   -5.687407|   -8.192868|    0.824000|    0.012013|
|         325|   -5.694546|   -8.187895|    0.824000|    0.012013|
|         326|   -5.702062|   -8.182673|    0.824000|    0.012014|
|         327|   -5.709952|   -8.177415|    0.824000|    0.012014|
|         328|   -5.718106|   -8.172313|    0.824000|    0.012014|
|         329|   -5.726363|   -8.167528|    0.824000|    0.012014|
|         330|   -5.734544|   -8.163191|    0.824000|    0.012014|
|         331|   -5.742475|   -8.159406|    0.824000|    0.012014|
|         332|   -5.750030|   -8.156254|    0.824000|    0.012014|
|         333|   -5.757168|   -8.153787|    0.824000|    0.012014|
|         334|   -5.763938|   -8.152043|    0.824000|    0.012014|
|         335|   -5.770457|   -8.151041|    0.824000|    0.012014|
|         336|   -5.776862|   -8.150784|    0.824000|    0.012014|
|         337|   -5.783268|   -8.151261|    0.824000|    0.012014|
|         338|   -5.789726|   -8.152453|    0.824000|    0.012015|
|         339|   -5.796212|   -8.154325|    0.824000|    0.012015|
|         340|   -5.802628|   -8.156838|    0.824000|    0.012015|
|         341|   -5.808820|   -8.159942|    0.824000|    0.012015|
|         342|   -5.814617|   -8.163582|    0.824000|    0.012015|
|         343|   -5.819867|   -8.167697|    0.824000|    0.012015|
|         344|   -5.824479|   -8.172224|    0.824000|    0.012015|
|         345|   -5.828441|   -8.177096|    0.824000|    0.012015|
|         346|   -5.831813|   -8.182244|    0.824000|    0.012015|
|         347|   -5.834706|   -8.187599|    0.824000|    0.012015|
|         348|   -5.837247|   -8.193092|    0.824000|    0.012015|
|         349|   -5.839546|   -8.198652|    0.824000|    0.012015|
|         350|   -5.841678|   -8.204214|    0.823999|    0.012015|
|         351|   -5.843674|   -8.209708|    0.823999|    0.012015|
|         352|   -5.845533|   -8.215067|    0.823999|    0.012015|
|         353|   -5.847234|   -8.220226|    0.823999|    0.012015|
|         354|   -5.848755|   -8.225121|    0.823998|    0.012014|
|         355|   -5.850082|   -8.229688|    0.823998|    0.012014|
|         356|   -5.851225|   -8.233864|    0.823998|    0.012014|
|         357|   -5.852212|   -8.237587|    0.823997|    0.012014|
|         358|   -5.853090|   -8.240797|    0.823997|    0.012014|
|         359|   -5.853917|   -8.243434|    0.823997|    0.012014|
|         360|   -5.854750|   -8.245445|    0.823996|    0.012014|
|         361|   -5.855645|   -8.246785|    0.823996|    0.012014|
|         362|   -5.856646|   -8.247413|    0.823995|    0.012014|
|         363|   -5.857791|   -8.247305|    0.823995|    0.012014|
|         364|   -5.859105|   -8.246450|    0.823995|    0.012014|
|         365|   -5.860607|   -8.244852|    0.823994|    0.012013|
|         366|   -5.862312|   -8.242537|    0.823994|    0.012013|
|         367|   -5.864229|   -8.239546|    0.823993|    0.012013|
|         368|   -5.866368|   -8.235939|    0.823993|    0.012013|
|         369|   -5.868737|   -8.231792|    0.823993|    0.012013|
|         370|   -5.871342|   -8.227197|    0.823992|    0.012013|
|         371|   -5.874189|   -8.222253|    0.823992|    0.012013|
|         372|   -5.877283|   -8.217067|    0.823992|    0.012013|
|         373|   -5.880626|   -8.211751|    0.823991|    0.012013|
|         374|   -5.884219|   -8.206415|    0.823991|    0.012012|
|         375|   -5.888063|   -8.201166|    0.823991|    0.012012|
|         376|   -5.892156|   -8.196104|    0.823991|    0.012012|
|         377|   -5.896495|   -8.191324|    0.823991|    0.012012|
|         378|   -5.901077|   -8.186907|    0.823991|    0.012012|
|         379|   -5.905897|   -8.182929|    0.823991|    0.012012|
|         380|   -5.910951|   -8.179450|    0.823991|    0.012012|
|         381|   -5.916233|   -8.176522|    0.823991|    0.012012|
|         382|   -5.921734|   -8.174185|    0.823991|    0.012012|
|         383|   -5.927446|   -8.172468|    0.823992|    0.012012|
|         384|   -5.933358|   -8.171387|    0.823992|    0.012012|
|         385|   -5.939457|   -8.170949|    0.823992|    0.012012|
|         386|   -5.945726|   -8.171152|    0.823993|    0.012012|
|         387|   -5.952149|   -8.171981|    0.823993|    0.012011|
|         388|   -5.958703|   -8.173414|    0.823994|    0.012011|
|         389|   -5.965364|   -8.175417|    0.823994|    0.012011|
|         390|   -5.972105|   -8.177950|    0.823995|    0.012011|
|         391|   -5.978895|   -8.180964|    0.823995|    0.012011|
|         392|   -5.985699|   -8.184405|    0.823996|    0.012011|
|         393|   -5.992481|   -8.188211|    0.823996|    0.012011|
|         394|   -5.999201|   -8.192317|    0.823997|    0.012011|
|         395|   -6.005814|   -8.196656|    0.823998|    0.012011|
|         396|   -6.012276|   -8.201159|    0.823998|    0.012011|
|         397|   -6.018540|   -8.205758|    0.823999|    0.012011|
|         398|   -6.024558|   -8.210388|    0.824000|    0.012011|
|         399|   -6.030282|   -8.214992|    0.824000|    0.012012|
|         400|   -6.035665|   -8.219518|    0.824001|    0.012012|
|         401|   -6.040662|   -8.223921|    0.824002|    0.012011|
+-----------------------------------------------------------------------+
|Fixed CL Mode                           |Value                         |
+-----------------------------------------------------------------------+
|Current CL                              |0.824002                      |
|Target CL                               |0.824                         |
|Previous AOA                            |2.7806                        |
|Changed AoA by                          |-5.86542e-06                  |
+-----------------------------------------------------------------------+
+----------------------------------------------------------------+
|  Inner_Iter|    rms[Rho]|     rms[nu]|          CL|          CD|
+----------------------------------------------------------------+
|         402|   -5.410500|   -8.227487|    0.824003|    0.012012|
|         403|   -5.733363|   -8.231839|    0.824003|    0.012012|
|         404|   -5.878820|   -8.235806|    0.824004|    0.012012|
|         405|   -5.919986|   -8.239550|    0.824005|    0.012012|
|         406|   -5.947960|   -8.243109|    0.824005|    0.012012|
|         407|   -5.976405|   -8.246510|    0.824006|    0.012012|
|         408|   -6.002476|   -8.249783|    0.824007|    0.012012|
|         409|   -6.022184|   -8.252957|    0.824007|    0.012012|
|         410|   -6.034697|   -8.256065|    0.824008|    0.012012|
|         411|   -6.041844|   -8.259138|    0.824009|    0.012012|
|         412|   -6.045642|   -8.262206|    0.824009|    0.012012|
|         413|   -6.047242|   -8.265298|    0.824010|    0.012012|
|         414|   -6.047283|   -8.268438|    0.824011|    0.012012|
|         415|   -6.046344|   -8.271646|    0.824011|    0.012012|
|         416|   -6.044992|   -8.274938|    0.824012|    0.012012|
|         417|   -6.043618|   -8.278323|    0.824012|    0.012012|
|         418|   -6.042348|   -8.281806|    0.824013|    0.012012|
|         419|   -6.041104|   -8.285386|    0.824013|    0.012013|
|         420|   -6.039745|   -8.289061|    0.824014|    0.012013|
|         421|   -6.038196|   -8.292822|    0.824014|    0.012013|
|         422|   -6.036474|   -8.296656|    0.824015|    0.012013|
|         423|   -6.034661|   -8.300548|    0.824015|    0.012013|
|         424|   -6.032843|   -8.304483|    0.824016|    0.012013|
|         425|   -6.031085|   -8.308441|    0.824016|    0.012013|
|         426|   -6.029423|   -8.312404|    0.824016|    0.012013|
|         427|   -6.027883|   -8.316353|    0.824017|    0.012013|
|         428|   -6.026493|   -8.320273|    0.824017|    0.012013|
|         429|   -6.025280|   -8.324149|    0.824017|    0.012013|
|         430|   -6.024271|   -8.327969|    0.824017|    0.012013|
|         431|   -6.023492|   -8.331723|    0.824018|    0.012013|
|         432|   -6.022962|   -8.335407|    0.824018|    0.012013|
|         433|   -6.022700|   -8.339018|    0.824018|    0.012013|
|         434|   -6.022721|   -8.342557|    0.824018|    0.012013|
|         435|   -6.023040|   -8.346028|    0.824019|    0.012013|
|         436|   -6.023665|   -8.349437|    0.824019|    0.012013|
|         437|   -6.024603|   -8.352792|    0.824019|    0.012013|
|         438|   -6.025852|   -8.356103|    0.824019|    0.012013|
|         439|   -6.027409|   -8.359381|    0.824019|    0.012013|
|         440|   -6.029265|   -8.362636|    0.824019|    0.012013|
|         441|   -6.031406|   -8.365878|    0.824019|    0.012013|
|         442|   -6.033820|   -8.369114|    0.824019|    0.012013|
|         443|   -6.036490|   -8.372350|    0.824019|    0.012013|
|         444|   -6.039401|   -8.375589|    0.824019|    0.012013|
|         445|   -6.042536|   -8.378830|    0.824019|    0.012013|
|         446|   -6.045880|   -8.382070|    0.824019|    0.012013|
|         447|   -6.049413|   -8.385302|    0.824019|    0.012013|
|         448|   -6.053115|   -8.388515|    0.824019|    0.012013|
|         449|   -6.056959|   -8.391696|    0.824019|    0.012013|
|         450|   -6.060914|   -8.394828|    0.824019|    0.012013|
|         451|   -6.064944|   -8.397896|    0.824019|    0.012013|
|         452|   -6.069011|   -8.400882|    0.824018|    0.012013|
|         453|   -6.073074|   -8.403774|    0.824018|    0.012013|
|         454|   -6.077093|   -8.406557|    0.824018|    0.012013|
|         455|   -6.081031|   -8.409220|    0.824018|    0.012013|
|         456|   -6.084851|   -8.411755|    0.824018|    0.012013|
|         457|   -6.088521|   -8.414157|    0.824018|    0.012013|
|         458|   -6.092013|   -8.416425|    0.824018|    0.012013|
|         459|   -6.095303|   -8.418562|    0.824018|    0.012013|
|         460|   -6.098369|   -8.420573|    0.824017|    0.012012|
|         461|   -6.101194|   -8.422470|    0.824017|    0.012012|
|         462|   -6.103763|   -8.424265|    0.824017|    0.012012|
|         463|   -6.106065|   -8.425975|    0.824017|    0.012012|
|         464|   -6.108095|   -8.427616|    0.824017|    0.012012|
|         465|   -6.109848|   -8.429208|    0.824017|    0.012012|
|         466|   -6.111328|   -8.430770|    0.824017|    0.012012|
|         467|   -6.112538|   -8.432318|    0.824017|    0.012012|
|         468|   -6.113490|   -8.433872|    0.824017|    0.012012|
|         469|   -6.114194|   -8.435443|    0.824016|    0.012012|
|         470|   -6.114669|   -8.437046|    0.824016|    0.012012|
|         471|   -6.114932|   -8.438689|    0.824016|    0.012012|
|         472|   -6.115004|   -8.440378|    0.824016|    0.012012|
|         473|   -6.114907|   -8.442114|    0.824016|    0.012011|
|         474|   -6.114664|   -8.443899|    0.824016|    0.012011|
|         475|   -6.114300|   -8.445726|    0.824016|    0.012011|
|         476|   -6.113839|   -8.447586|    0.824016|    0.012011|
|         477|   -6.113305|   -8.449470|    0.824016|    0.012011|
|         478|   -6.112723|   -8.451363|    0.824016|    0.012011|
|         479|   -6.112117|   -8.453252|    0.824016|    0.012011|
|         480|   -6.111512|   -8.455122|    0.824016|    0.012011|
|         481|   -6.110930|   -8.456956|    0.824016|    0.012011|
|         482|   -6.110396|   -8.458740|    0.824016|    0.012011|
|         483|   -6.109930|   -8.460457|    0.824016|    0.012011|
|         484|   -6.109555|   -8.462094|    0.824016|    0.012011|
|         485|   -6.109292|   -8.463639|    0.824016|    0.012011|
|         486|   -6.109159|   -8.465083|    0.824016|    0.012011|
|         487|   -6.109175|   -8.466423|    0.824016|    0.012011|
|         488|   -6.109357|   -8.467657|    0.824016|    0.012010|
|         489|   -6.109719|   -8.468786|    0.824016|    0.012010|
|         490|   -6.110276|   -8.469817|    0.824016|    0.012010|
|         491|   -6.111040|   -8.470759|    0.824017|    0.012010|
|         492|   -6.112019|   -8.471625|    0.824017|    0.012010|
|         493|   -6.113223|   -8.472430|    0.824017|    0.012010|
|         494|   -6.114655|   -8.473193|    0.824017|    0.012010|
|         495|   -6.116319|   -8.473933|    0.824017|    0.012010|
|         496|   -6.118213|   -8.474674|    0.824017|    0.012010|
|         497|   -6.120336|   -8.475436|    0.824017|    0.012010|
|         498|   -6.122679|   -8.476242|    0.824018|    0.012010|
|         499|   -6.125234|   -8.477115|    0.824018|    0.012010|
|         500|   -6.127985|   -8.478073|    0.824018|    0.012010|
|         501|   -6.130917|   -8.479137|    0.824018|    0.012009|
+-----------------------------------------------------------------------+
|Fixed CL Mode                           |Value                         |
+-----------------------------------------------------------------------+
|Current CL                              |0.824018                      |
|Target CL                               |0.824                         |
|Previous AOA                            |2.78059                       |
|Changed AoA by                          |-8.96801e-05                  |
+-----------------------------------------------------------------------+
+----------------------------------------------------------------+
|  Inner_Iter|    rms[Rho]|     rms[nu]|          CL|          CD|
+----------------------------------------------------------------+
|         502|   -4.240559|   -8.247054|    0.824018|    0.012009|
|         503|   -4.624078|   -8.335258|    0.824019|    0.012009|
|         504|   -4.865921|   -8.369869|    0.824019|    0.012009|
|         505|   -4.944138|   -8.391325|    0.824019|    0.012009|
|         506|   -4.998028|   -8.407900|    0.824019|    0.012009|
|         507|   -5.067959|   -8.421706|    0.824019|    0.012009|
|         508|   -5.154402|   -8.433463|    0.824020|    0.012009|
|         509|   -5.244895|   -8.443631|    0.824020|    0.012009|
|         510|   -5.323241|   -8.452475|    0.824020|    0.012009|
|         511|   -5.381036|   -8.459987|    0.824020|    0.012010|
|         512|   -5.419555|   -8.466171|    0.824020|    0.012010|
|         513|   -5.442272|   -8.471309|    0.824021|    0.012010|
|         514|   -5.452802|   -8.475885|    0.824021|    0.012010|
|         515|   -5.456968|   -8.480226|    0.824021|    0.012010|
|         516|   -5.461514|   -8.484415|    0.824021|    0.012010|
|         517|   -5.471029|   -8.488360|    0.824022|    0.012010|
|         518|   -5.486647|   -8.491997|    0.824022|    0.012010|
|         519|   -5.506624|   -8.495387|    0.824022|    0.012010|
|         520|   -5.527842|   -8.498675|    0.824022|    0.012010|
|         521|   -5.547659|   -8.501979|    0.824022|    0.012010|
|         522|   -5.565195|   -8.505327|    0.824022|    0.012011|
|         523|   -5.581257|   -8.508640|    0.824023|    0.012011|
|         524|   -5.597186|   -8.511753|    0.824023|    0.012011|
|         525|   -5.613776|   -8.514540|    0.824023|    0.012011|
|         526|   -5.630916|   -8.516890|    0.824023|    0.012011|
|         527|   -5.647849|   -8.518741|    0.824023|    0.012011|
|         528|   -5.663609|   -8.520063|    0.824023|    0.012011|
|         529|   -5.677368|   -8.520858|    0.824023|    0.012011|
|         530|   -5.688609|   -8.521157|    0.824023|    0.012011|
|         531|   -5.697213|   -8.520986|    0.824023|    0.012011|
|         532|   -5.703504|   -8.520406|    0.824024|    0.012012|
|         533|   -5.708212|   -8.519422|    0.824024|    0.012012|
|         534|   -5.712321|   -8.518069|    0.824024|    0.012012|
|         535|   -5.716825|   -8.516364|    0.824024|    0.012012|
|         536|   -5.722517|   -8.514305|    0.824024|    0.012012|
|         537|   -5.729859|   -8.511892|    0.824024|    0.012012|
|         538|   -5.738933|   -8.509133|    0.824024|    0.012012|
|         539|   -5.749463|   -8.506040|    0.824024|    0.012012|
|         540|   -5.760859|   -8.502627|    0.824023|    0.012012|
|         541|   -5.772322|   -8.498933|    0.824023|    0.012012|
|         542|   -5.783004|   -8.495002|    0.824023|    0.012012|
|         543|   -5.792217|   -8.490886|    0.824023|    0.012012|
|         544|   -5.799634|   -8.486657|    0.824023|    0.012012|
|         545|   -5.805391|   -8.482380|    0.824023|    0.012012|
|         546|   -5.810023|   -8.478116|    0.824023|    0.012012|
|         547|   -5.814285|   -8.473924|    0.824022|    0.012012|
|         548|   -5.818935|   -8.469854|    0.824022|    0.012012|
|         549|   -5.824558|   -8.465947|    0.824022|    0.012012|
|         550|   -5.831477|   -8.462246|    0.824021|    0.012012|
|         551|   -5.839741|   -8.458776|    0.824021|    0.012012|
|         552|   -5.849167|   -8.455574|    0.824021|    0.012012|
|         553|   -5.859413|   -8.452674|    0.824020|    0.012012|
|         554|   -5.870074|   -8.450100|    0.824020|    0.012012|
|         555|   -5.880765|   -8.447883|    0.824019|    0.012012|
|         556|   -5.891204|   -8.446058|    0.824019|    0.012012|
|         557|   -5.901249|   -8.444673|    0.824018|    0.012012|
|         558|   -5.910900|   -8.443776|    0.824018|    0.012012|
|         559|   -5.920270|   -8.443423|    0.824017|    0.012012|
|         560|   -5.929534|   -8.443670|    0.824017|    0.012012|
|         561|   -5.938873|   -8.444574|    0.824016|    0.012012|
|         562|   -5.948436|   -8.446192|    0.824015|    0.012012|
|         563|   -5.958315|   -8.448578|    0.824015|    0.012012|
|         564|   -5.968542|   -8.451781|    0.824014|    0.012012|
|         565|   -5.979101|   -8.455846|    0.824013|    0.012011|
|         566|   -5.989938|   -8.460806|    0.824012|    0.012011|
|         567|   -6.000985|   -8.466680|    0.824012|    0.012011|
|         568|   -6.012172|   -8.473470|    0.824011|    0.012011|
|         569|   -6.023432|   -8.481156|    0.824010|    0.012011|
|         570|   -6.034706|   -8.489687|    0.824009|    0.012011|
|         571|   -6.045942|   -8.498978|    0.824009|    0.012011|
|         572|   -6.057082|   -8.508898|    0.824008|    0.012011|
|         573|   -6.068066|   -8.519266|    0.824007|    0.012011|
|         574|   -6.078821|   -8.529844|    0.824007|    0.012010|
|         575|   -6.089264|   -8.540330|    0.824006|    0.012010|
|         576|   -6.099304|   -8.550366|    0.824006|    0.012010|
|         577|   -6.108846|   -8.559544|    0.824005|    0.012010|
|         578|   -6.117797|   -8.567433|    0.824005|    0.012010|
|         579|   -6.126076|   -8.573613|    0.824004|    0.012010|
|         580|   -6.133613|   -8.577721|    0.824004|    0.012010|
|         581|   -6.140362|   -8.579496|    0.824003|    0.012010|
|         582|   -6.146298|   -8.578824|    0.824003|    0.012010|
|         583|   -6.151422|   -8.575757|    0.824003|    0.012009|
|         584|   -6.155757|   -8.570506|    0.824003|    0.012009|
|         585|   -6.159350|   -8.563413|    0.824003|    0.012009|
|         586|   -6.162266|   -8.554908|    0.824003|    0.012009|
|         587|   -6.164588|   -8.545460|    0.824003|    0.012009|
|         588|   -6.166406|   -8.535537|    0.824003|    0.012009|
|         589|   -6.167821|   -8.525568|    0.824003|    0.012009|
|         590|   -6.168936|   -8.515935|    0.824003|    0.012009|
|         591|   -6.169850|   -8.506959|    0.824003|    0.012009|
|         592|   -6.170660|   -8.498902|    0.824004|    0.012009|
|         593|   -6.171456|   -8.491973|    0.824004|    0.012009|
|         594|   -6.172317|   -8.486329|    0.824005|    0.012009|
|         595|   -6.173316|   -8.482092|    0.824005|    0.012009|
|         596|   -6.174511|   -8.479345|    0.824005|    0.012008|
|         597|   -6.175952|   -8.478146|    0.824006|    0.012008|
|         598|   -6.177679|   -8.478527|    0.824006|    0.012008|
|         599|   -6.179721|   -8.480499|    0.824007|    0.012008|
|         600|   -6.182102|   -8.484052|    0.824008|    0.012008|
|         601|   -6.184833|   -8.489159|    0.824008|    0.012008|
+-----------------------------------------------------------------------+
|Fixed CL Mode                           |Value                         |
+-----------------------------------------------------------------------+
|Current CL                              |0.824008                      |
|Target CL                               |0.824                         |
|Previous AOA                            |2.78051                       |
|Changed AoA by                          |-3.80639e-05                  |
+-----------------------------------------------------------------------+
+----------------------------------------------------------------+
|  Inner_Iter|    rms[Rho]|     rms[nu]|          CL|          CD|
+----------------------------------------------------------------+
|         602|   -4.612598|   -8.425109|    0.824009|    0.012008|
|         603|   -4.994445|   -8.464009|    0.824009|    0.012008|
|         604|   -5.231004|   -8.483240|    0.824010|    0.012008|
|         605|   -5.305839|   -8.499275|    0.824011|    0.012008|
|         606|   -5.357985|   -8.514721|    0.824011|    0.012008|
|         607|   -5.425934|   -8.530081|    0.824012|    0.012008|
|         608|   -5.509598|   -8.545401|    0.824013|    0.012008|
|         609|   -5.596971|   -8.560612|    0.824013|    0.012008|
|         610|   -5.673311|   -8.575518|    0.824014|    0.012008|
|         611|   -5.731389|   -8.589777|    0.824015|    0.012008|
|         612|   -5.772281|   -8.602990|    0.824015|    0.012008|
|         613|   -5.798472|   -8.614807|    0.824016|    0.012008|
|         614|   -5.812471|   -8.624964|    0.824016|    0.012008|
|         615|   -5.819252|   -8.633230|    0.824017|    0.012008|
|         616|   -5.825264|   -8.639363|    0.824017|    0.012008|
|         617|   -5.835255|   -8.643195|    0.824018|    0.012008|
|         618|   -5.850714|   -8.644702|    0.824018|    0.012008|
|         619|   -5.870323|   -8.644046|    0.824019|    0.012008|
|         620|   -5.891429|   -8.641525|    0.824019|    0.012008|
|         621|   -5.911780|   -8.637503|    0.824020|    0.012008|
|         622|   -5.930678|   -8.632343|    0.824020|    0.012009|
|         623|   -5.948854|   -8.626367|    0.824020|    0.012009|
|         624|   -5.967413|   -8.619866|    0.824021|    0.012009|
|         625|   -5.986845|   -8.613125|    0.824021|    0.012009|
|         626|   -6.006701|   -8.606388|    0.824021|    0.012009|
|         627|   -6.025867|   -8.599866|    0.824021|    0.012009|
|         628|   -6.043066|   -8.593742|    0.824021|    0.012009|
|         629|   -6.057291|   -8.588166|    0.824022|    0.012009|
|         630|   -6.068046|   -8.583247|    0.824022|    0.012009|
|         631|   -6.075424|   -8.579063|    0.824022|    0.012009|
|         632|   -6.080069|   -8.575659|    0.824022|    0.012009|
|         633|   -6.083016|   -8.573048|    0.824022|    0.012009|
|         634|   -6.085446|   -8.571214|    0.824022|    0.012010|
|         635|   -6.088412|   -8.570121|    0.824022|    0.012010|
|         636|   -6.092648|   -8.569707|    0.824022|    0.012010|
|         637|   -6.098472|   -8.569903|    0.824021|    0.012010|
|         638|   -6.105794|   -8.570626|    0.824021|    0.012010|
|         639|   -6.114162|   -8.571790|    0.824021|    0.012010|
|         640|   -6.122855|   -8.573307|    0.824021|    0.012010|
|         641|   -6.131019|   -8.575093|    0.824021|    0.012010|
|         642|   -6.137853|   -8.577071|    0.824021|    0.012010|
|         643|   -6.142817|   -8.579169|    0.824020|    0.012010|
|         644|   -6.145790|   -8.581326|    0.824020|    0.012010|
|         645|   -6.147098|   -8.583488|    0.824020|    0.012010|
|         646|   -6.147395|   -8.585609|    0.824020|    0.012010|
|         647|   -6.147458|   -8.587656|    0.824019|    0.012011|
|         648|   -6.147991|   -8.589599|    0.824019|    0.012011|
|         649|   -6.149495|   -8.591415|    0.824019|    0.012011|
|         650|   -6.152212|   -8.593084|    0.824018|    0.012011|
|         651|   -6.156150|   -8.594587|    0.824018|    0.012011|
|         652|   -6.161132|   -8.595909|    0.824018|    0.012011|
|         653|   -6.166883|   -8.597033|    0.824017|    0.012011|
|         654|   -6.173101|   -8.597959|    0.824017|    0.012011|
|         655|   -6.179535|   -8.598664|    0.824017|    0.012011|
|         656|   -6.186026|   -8.599132|    0.824016|    0.012011|
|         657|   -6.192526|   -8.599348|    0.824016|    0.012011|
|         658|   -6.199089|   -8.599297|    0.824015|    0.012011|
|         659|   -6.205836|   -8.598968|    0.824015|    0.012011|
|         660|   -6.212920|   -8.598352|    0.824015|    0.012011|
|         661|   -6.220490|   -8.597448|    0.824014|    0.012011|
|         662|   -6.228662|   -8.596258|    0.824014|    0.012011|
|         663|   -6.237513|   -8.594796|    0.824013|    0.012011|
|         664|   -6.247079|   -8.593086|    0.824013|    0.012011|
|         665|   -6.257362|   -8.591159|    0.824013|    0.012011|
|         666|   -6.268343|   -8.589059|    0.824012|    0.012011|
|         667|   -6.279995|   -8.586841|    0.824012|    0.012011|
|         668|   -6.292287|   -8.584565|    0.824011|    0.012011|
|         669|   -6.305192|   -8.582299|    0.824011|    0.012011|
|         670|   -6.318686|   -8.580113|    0.824011|    0.012011|
|         671|   -6.332744|   -8.578079|    0.824010|    0.012011|
|         672|   -6.347336|   -8.576266|    0.824010|    0.012011|
|         673|   -6.362419|   -8.574737|    0.824010|    0.012011|
|         674|   -6.377933|   -8.573546|    0.824009|    0.012011|
|         675|   -6.393794|   -8.572737|    0.824009|    0.012011|
|         676|   -6.409896|   -8.572341|    0.824008|    0.012011|
|         677|   -6.426103|   -8.572375|    0.824008|    0.012011|
|         678|   -6.442256|   -8.572839|    0.824008|    0.012011|
|         679|   -6.458171|   -8.573718|    0.824007|    0.012011|
|         680|   -6.473644|   -8.574978|    0.824007|    0.012011|
|         681|   -6.488456|   -8.576571|    0.824007|    0.012011|
|         682|   -6.502387|   -8.578431|    0.824007|    0.012011|
|         683|   -6.515219|   -8.580481|    0.824006|    0.012011|
|         684|   -6.526757|   -8.582633|    0.824006|    0.012011|
|         685|   -6.536836|   -8.584792|    0.824006|    0.012011|
|         686|   -6.545341|   -8.586861|    0.824006|    0.012011|
|         687|   -6.552210|   -8.588747|    0.824006|    0.012010|
|         688|   -6.557446|   -8.590365|    0.824006|    0.012010|
|         689|   -6.561110|   -8.591648|    0.824006|    0.012010|
|         690|   -6.563319|   -8.592547|    0.824006|    0.012010|
|         691|   -6.564231|   -8.593040|    0.824006|    0.012010|
|         692|   -6.564034|   -8.593129|    0.824006|    0.012010|
|         693|   -6.562931|   -8.592845|    0.824006|    0.012010|
|         694|   -6.561129|   -8.592241|    0.824006|    0.012010|
|         695|   -6.558825|   -8.591393|    0.824006|    0.012010|
|         696|   -6.556202|   -8.590393|    0.824006|    0.012010|
|         697|   -6.553425|   -8.589342|    0.824006|    0.012010|
|         698|   -6.550635|   -8.588346|    0.824006|    0.012010|
|         699|   -6.547954|   -8.587509|    0.824006|    0.012010|
|         700|   -6.545482|   -8.586927|    0.824006|    0.012010|
|         701|   -6.543303|   -8.586687|    0.824006|    0.012009|
+-----------------------------------------------------------------------+
|Fixed CL Mode                           |Value                         |
+-----------------------------------------------------------------------+
|Current CL                              |0.824006                      |
|Target CL                               |0.824                         |
|Previous AOA                            |2.78047                       |
|Changed AoA by                          |-3.10257e-05                  |
+-----------------------------------------------------------------------+
+----------------------------------------------------------------+
|  Inner_Iter|    rms[Rho]|     rms[nu]|          CL|          CD|
+----------------------------------------------------------------+
|         702|   -4.701574|   -8.516446|    0.824007|    0.012009|
|         703|   -5.084376|   -8.549275|    0.824007|    0.012009|
|         704|   -5.322963|   -8.560827|    0.824007|    0.012009|
|         705|   -5.398515|   -8.568324|    0.824007|    0.012009|
|         706|   -5.450988|   -8.574635|    0.824007|    0.012009|
|         707|   -5.519732|   -8.580456|    0.824008|    0.012009|
|         708|   -5.605013|   -8.586032|    0.824008|    0.012009|
|         709|   -5.694928|   -8.591494|    0.824008|    0.012009|
|         710|   -5.774327|   -8.596884|    0.824008|    0.012009|
|         711|   -5.835205|   -8.602144|    0.824009|    0.012009|
|         712|   -5.878093|   -8.607189|    0.824009|    0.012009|
|         713|   -5.905260|   -8.611974|    0.824009|    0.012009|
|         714|   -5.919286|   -8.616481|    0.824009|    0.012009|
|         715|   -5.925602|   -8.620671|    0.824010|    0.012009|
|         716|   -5.931228|   -8.624446|    0.824010|    0.012009|
|         717|   -5.941257|   -8.627695|    0.824010|    0.012009|
|         718|   -5.957237|   -8.630333|    0.824010|    0.012009|
|         719|   -5.977693|   -8.632334|    0.824011|    0.012009|
|         720|   -5.999685|   -8.633715|    0.824011|    0.012009|
|         721|   -6.020686|   -8.634514|    0.824011|    0.012009|
|         722|   -6.039882|   -8.634775|    0.824011|    0.012009|
|         723|   -6.058087|   -8.634530|    0.824011|    0.012009|
|         724|   -6.076584|   -8.633818|    0.824012|    0.012009|
|         725|   -6.096026|   -8.632692|    0.824012|    0.012009|
|         726|   -6.116063|   -8.631238|    0.824012|    0.012009|
|         727|   -6.135622|   -8.629542|    0.824012|    0.012009|
|         728|   -6.153421|   -8.627695|    0.824012|    0.012009|
|         729|   -6.168410|   -8.625794|    0.824012|    0.012009|
|         730|   -6.180023|   -8.623927|    0.824012|    0.012009|
|         731|   -6.188274|   -8.622174|    0.824012|    0.012009|
|         732|   -6.193753|   -8.620602|    0.824012|    0.012009|
|         733|   -6.197499|   -8.619255|    0.824012|    0.012009|
|         734|   -6.200755|   -8.618163|    0.824013|    0.012009|
|         735|   -6.204673|   -8.617334|    0.824013|    0.012009|
|         736|   -6.210095|   -8.616761|    0.824013|    0.012009|
|         737|   -6.217438|   -8.616426|    0.824013|    0.012009|
|         738|   -6.226671|   -8.616298|    0.824013|    0.012009|
|         739|   -6.237355|   -8.616341|    0.824013|    0.012009|
|         740|   -6.248709|   -8.616517|    0.824013|    0.012009|
|         741|   -6.259740|   -8.616785|    0.824012|    0.012010|
|         742|   -6.269438|   -8.617107|    0.824012|    0.012010|
|         743|   -6.277042|   -8.617448|    0.824012|    0.012010|
|         744|   -6.282259|   -8.617780|    0.824012|    0.012010|
|         745|   -6.285358|   -8.618076|    0.824012|    0.012010|
|         746|   -6.287051|   -8.618319|    0.824012|    0.012010|
|         747|   -6.288255|   -8.618494|    0.824012|    0.012010|
|         748|   -6.289828|   -8.618591|    0.824012|    0.012010|
|         749|   -6.292393|   -8.618601|    0.824012|    0.012010|
|         750|   -6.296263|   -8.618522|    0.824012|    0.012010|
|         751|   -6.301452|   -8.618354|    0.824012|    0.012010|
|         752|   -6.307736|   -8.618096|    0.824012|    0.012010|
|         753|   -6.314749|   -8.617755|    0.824011|    0.012010|
|         754|   -6.322080|   -8.617345|    0.824011|    0.012010|
|         755|   -6.329370|   -8.616870|    0.824011|    0.012010|
|         756|   -6.336376|   -8.616339|    0.824011|    0.012010|
|         757|   -6.343002|   -8.615764|    0.824011|    0.012010|
|         758|   -6.349290|   -8.615163|    0.824011|    0.012010|
|         759|   -6.355378|   -8.614556|    0.824010|    0.012010|
|         760|   -6.361449|   -8.613967|    0.824010|    0.012010|
|         761|   -6.367681|   -8.613423|    0.824010|    0.012010|
|         762|   -6.374211|   -8.612954|    0.824010|    0.012010|
|         763|   -6.381123|   -8.612592|    0.824010|    0.012011|
|         764|   -6.388444|   -8.612372|    0.824009|    0.012011|
|         765|   -6.396161|   -8.612328|    0.824009|    0.012011|
|         766|   -6.404233|   -8.612496|    0.824009|    0.012011|
|         767|   -6.412610|   -8.612910|    0.824009|    0.012011|
|         768|   -6.421242|   -8.613602|    0.824008|    0.012011|
|         769|   -6.430090|   -8.614599|    0.824008|    0.012011|
|         770|   -6.439119|   -8.615925|    0.824008|    0.012011|
|         771|   -6.448300|   -8.617593|    0.824008|    0.012011|
|         772|   -6.457604|   -8.619610|    0.824007|    0.012011|
|         773|   -6.466995|   -8.621971|    0.824007|    0.012011|
|         774|   -6.476429|   -8.624662|    0.824007|    0.012011|
|         775|   -6.485849|   -8.627654|    0.824007|    0.012011|
|         776|   -6.495190|   -8.630907|    0.824006|    0.012011|
|         777|   -6.504377|   -8.634366|    0.824006|    0.012011|
|         778|   -6.513332|   -8.637966|    0.824006|    0.012011|
|         779|   -6.521978|   -8.641628|    0.824006|    0.012011|
|         780|   -6.530238|   -8.645267|    0.824006|    0.012011|
|         781|   -6.538045|   -8.648791|    0.824005|    0.012011|
|         782|   -6.545341|   -8.652105|    0.824005|    0.012011|
|         783|   -6.552081|   -8.655119|    0.824005|    0.012011|
|         784|   -6.558235|   -8.657749|    0.824005|    0.012011|
|         785|   -6.563787|   -8.659925|    0.824005|    0.012011|
|         786|   -6.568736|   -8.661596|    0.824005|    0.012011|
|         787|   -6.573099|   -8.662730|    0.824005|    0.012011|
|         788|   -6.576905|   -8.663323|    0.824005|    0.012011|
|         789|   -6.580195|   -8.663393|    0.824005|    0.012011|
|         790|   -6.583019|   -8.662984|    0.824005|    0.012011|
|         791|   -6.585436|   -8.662162|    0.824005|    0.012011|
|         792|   -6.587506|   -8.661009|    0.824005|    0.012011|
|         793|   -6.589292|   -8.659620|    0.824005|    0.012011|
|         794|   -6.590854|   -8.658099|    0.824005|    0.012011|
|         795|   -6.592248|   -8.656552|    0.824005|    0.012010|
|         796|   -6.593527|   -8.655080|    0.824005|    0.012010|
|         797|   -6.594737|   -8.653781|    0.824005|    0.012010|
|         798|   -6.595918|   -8.652741|    0.824005|    0.012010|
|         799|   -6.597103|   -8.652037|    0.824005|    0.012010|
|         800|   -6.598320|   -8.651728|    0.824006|    0.012010|
|         801|   -6.599589|   -8.651864|    0.824006|    0.012010|
+-----------------------------------------------------------------------+
|Fixed CL Mode                           |Value                         |
+-----------------------------------------------------------------------+
|Current CL                              |0.824006                      |
|Target CL                               |0.824                         |
|Previous AOA                            |2.78044                       |
|Changed AoA by                          |-2.75096e-05                  |
+-----------------------------------------------------------------------+
+----------------------------------------------------------------+
|  Inner_Iter|    rms[Rho]|     rms[nu]|          CL|          CD|
+----------------------------------------------------------------+
|         802|   -4.753865|   -8.578842|    0.824006|    0.012010|
|         803|   -5.137532|   -8.613625|    0.824006|    0.012010|
|         804|   -5.378540|   -8.626064|    0.824006|    0.012010|
|         805|   -5.455172|   -8.634171|    0.824006|    0.012010|
|         806|   -5.507786|   -8.640967|    0.824007|    0.012010|
|         807|   -5.576576|   -8.647162|    0.824007|    0.012010|
|         808|   -5.661879|   -8.652995|    0.824007|    0.012010|
|         809|   -5.751486|   -8.658604|    0.824007|    0.012010|
|         810|   -5.829817|   -8.664048|    0.824007|    0.012010|
|         811|   -5.888811|   -8.669304|    0.824007|    0.012010|
|         812|   -5.929419|   -8.674336|    0.824008|    0.012010|
|         813|   -5.954477|   -8.679166|    0.824008|    0.012010|
|         814|   -5.967000|   -8.683863|    0.824008|    0.012010|
|         815|   -5.972513|   -8.688458|    0.824008|    0.012009|
|         816|   -5.977821|   -8.692928|    0.824008|    0.012009|
|         817|   -5.987746|   -8.697214|    0.824009|    0.012009|
|         818|   -6.003657|   -8.701274|    0.824009|    0.012009|
|         819|   -6.023998|   -8.705103|    0.824009|    0.012009|
|         820|   -6.045810|   -8.708729|    0.824009|    0.012009|
|         821|   -6.066570|   -8.712183|    0.824009|    0.012009|
|         822|   -6.085471|   -8.715483|    0.824009|    0.012009|
|         823|   -6.103327|   -8.718623|    0.824009|    0.012009|
|         824|   -6.121437|   -8.721591|    0.824009|    0.012009|
|         825|   -6.140489|   -8.724391|    0.824010|    0.012009|
|         826|   -6.160203|   -8.727028|    0.824010|    0.012009|
|         827|   -6.179577|   -8.729562|    0.824010|    0.012009|
|         828|   -6.197387|   -8.732024|    0.824010|    0.012009|
|         829|   -6.212597|   -8.734465|    0.824010|    0.012009|
|         830|   -6.224606|   -8.736934|    0.824010|    0.012009|
|         831|   -6.233363|   -8.739483|    0.824010|    0.012009|
|         832|   -6.239384|   -8.742153|    0.824010|    0.012009|
|         833|   -6.243655|   -8.744972|    0.824010|    0.012009|
|         834|   -6.247387|   -8.747955|    0.824010|    0.012009|
|         835|   -6.251739|   -8.751096|    0.824010|    0.012009|
|         836|   -6.257574|   -8.754378|    0.824010|    0.012009|
|         837|   -6.265341|   -8.757771|    0.824010|    0.012009|
|         838|   -6.275050|   -8.761236|    0.824010|    0.012009|
|         839|   -6.286293|   -8.764730|    0.824010|    0.012009|
|         840|   -6.298312|   -8.768204|    0.824010|    0.012009|
|         841|   -6.310121|   -8.771614|    0.824010|    0.012009|
|         842|   -6.320694|   -8.774920|    0.824010|    0.012009|
|         843|   -6.329232|   -8.778087|    0.824010|    0.012009|
|         844|   -6.335393|   -8.781086|    0.824010|    0.012009|
|         845|   -6.339399|   -8.783894|    0.824010|    0.012009|
|         846|   -6.341936|   -8.786494|    0.824010|    0.012009|
|         847|   -6.343916|   -8.788872|    0.824009|    0.012009|
|         848|   -6.346213|   -8.791014|    0.824009|    0.012009|
|         849|   -6.349475|   -8.792912|    0.824009|    0.012009|
|         850|   -6.354038|   -8.794554|    0.824009|    0.012009|
|         851|   -6.359936|   -8.795931|    0.824009|    0.012009|
|         852|   -6.366956|   -8.797032|    0.824009|    0.012009|
|         853|   -6.374735|   -8.797847|    0.824009|    0.012009|
|         854|   -6.382859|   -8.798386|    0.824009|    0.012009|
|         855|   -6.390963|   -8.798635|    0.824009|    0.012009|
|         856|   -6.398797|   -8.798589|    0.824008|    0.012009|
|         857|   -6.406265|   -8.798253|    0.824008|    0.012010|
|         858|   -6.413414|   -8.797636|    0.824008|    0.012010|
|         859|   -6.420399|   -8.796758|    0.824008|    0.012010|
|         860|   -6.427422|   -8.795646|    0.824008|    0.012010|
|         861|   -6.434686|   -8.794338|    0.824008|    0.012010|
|         862|   -6.442353|   -8.792878|    0.824007|    0.012010|
|         863|   -6.450529|   -8.791321|    0.824007|    0.012010|
|         864|   -6.459267|   -8.789726|    0.824007|    0.012010|
|         865|   -6.468570|   -8.788157|    0.824007|    0.012010|
|         866|   -6.478418|   -8.786682|    0.824007|    0.012010|
|         867|   -6.488776|   -8.785372|    0.824006|    0.012010|
|         868|   -6.499612|   -8.784293|    0.824006|    0.012010|
|         869|   -6.510902|   -8.783510|    0.824006|    0.012010|
|         870|   -6.522628|   -8.783083|    0.824006|    0.012010|
|         871|   -6.534780|   -8.783060|    0.824005|    0.012010|
|         872|   -6.547346|   -8.783481|    0.824005|    0.012010|
|         873|   -6.560307|   -8.784374|    0.824005|    0.012010|
|         874|   -6.573632|   -8.785752|    0.824005|    0.012010|
|         875|   -6.587273|   -8.787614|    0.824005|    0.012010|
|         876|   -6.601164|   -8.789942|    0.824004|    0.012010|
|         877|   -6.615223|   -8.792704|    0.824004|    0.012010|
|         878|   -6.629352|   -8.795848|    0.824004|    0.012010|
|         879|   -6.643437|   -8.799307|    0.824004|    0.012010|
|         880|   -6.657355|   -8.802999|    0.824004|    0.012010|
|         881|   -6.670974|   -8.806832|    0.824004|    0.012010|
|         882|   -6.684157|   -8.810701|    0.824003|    0.012010|
|         883|   -6.696768|   -8.814497|    0.824003|    0.012010|
|         884|   -6.708673|   -8.818108|    0.824003|    0.012010|
|         885|   -6.719751|   -8.821431|    0.824003|    0.012010|
|         886|   -6.729897|   -8.824372|    0.824003|    0.012010|
|         887|   -6.739025|   -8.826856|    0.824003|    0.012010|
|         888|   -6.747079|   -8.828831|    0.824003|    0.012010|
|         889|   -6.754032|   -8.830272|    0.824003|    0.012010|
|         890|   -6.759886|   -8.831185|    0.824003|    0.012010|
|         891|   -6.764674|   -8.831601|    0.824003|    0.012010|
|         892|   -6.768455|   -8.831582|    0.824003|    0.012010|
|         893|   -6.771307|   -8.831211|    0.824003|    0.012010|
|         894|   -6.773325|   -8.830585|    0.824003|    0.012010|
|         895|   -6.774611|   -8.829816|    0.824003|    0.012010|
|         896|   -6.775270|   -8.829017|    0.824003|    0.012010|
|         897|   -6.775407|   -8.828302|    0.824003|    0.012010|
|         898|   -6.775121|   -8.827774|    0.824003|    0.012010|
|         899|   -6.774504|   -8.827528|    0.824003|    0.012010|
|         900|   -6.773639|   -8.827645|    0.824003|    0.012010|
|         901|   -6.772602|   -8.828186|    0.824003|    0.012010|
+-----------------------------------------------------------------------+
|Fixed CL Mode                           |Value                         |
+-----------------------------------------------------------------------+
|Current CL                              |0.824003                      |
|Target CL                               |0.824                         |
|Previous AOA                            |2.78041                       |
[...]
|        5298|   -6.044095|   -7.940199|    0.824238|    0.012014|
|        5299|   -6.050947|   -7.943804|    0.824238|    0.012014|
|        5300|   -6.057379|   -7.947417|    0.824238|    0.012014|
|        5301|   -6.063350|   -7.951050|    0.824238|    0.012014|
|        5302|   -6.068835|   -7.954712|    0.824238|    0.012014|
|        5303|   -6.073821|   -7.958410|    0.824238|    0.012014|
|        5304|   -6.078303|   -7.962149|    0.824238|    0.012014|
|        5305|   -6.082296|   -7.965935|    0.824238|    0.012014|
|        5306|   -6.085822|   -7.969772|    0.824238|    0.012014|
|        5307|   -6.088916|   -7.973663|    0.824239|    0.012014|
|        5308|   -6.091621|   -7.977608|    0.824239|    0.012014|
|        5309|   -6.093990|   -7.981610|    0.824239|    0.012014|
|        5310|   -6.096077|   -7.985669|    0.824239|    0.012014|
|        5311|   -6.097943|   -7.989787|    0.824239|    0.012014|
|        5312|   -6.099648|   -7.993968|    0.824239|    0.012014|
|        5313|   -6.101254|   -7.998215|    0.824239|    0.012014|
|        5314|   -6.102817|   -8.002533|    0.824239|    0.012014|
|        5315|   -6.104392|   -8.006927|    0.824239|    0.012014|
|        5316|   -6.106030|   -8.011404|    0.824240|    0.012014|
|        5317|   -6.107775|   -8.015970|    0.824240|    0.012014|
|        5318|   -6.109666|   -8.020632|    0.824240|    0.012014|
|        5319|   -6.111735|   -8.025396|    0.824240|    0.012014|
|        5320|   -6.114007|   -8.030269|    0.824240|    0.012014|
|        5321|   -6.116501|   -8.035256|    0.824240|    0.012014|
|        5322|   -6.119229|   -8.040360|    0.824240|    0.012014|
|        5323|   -6.122194|   -8.045584|    0.824241|    0.012014|
|        5324|   -6.125396|   -8.050929|    0.824241|    0.012014|
|        5325|   -6.128826|   -8.056394|    0.824241|    0.012014|
|        5326|   -6.132467|   -8.061977|    0.824241|    0.012014|
|        5327|   -6.136299|   -8.067673|    0.824241|    0.012014|
|        5328|   -6.140296|   -8.073475|    0.824241|    0.012014|
|        5329|   -6.144424|   -8.079376|    0.824241|    0.012015|
|        5330|   -6.148648|   -8.085366|    0.824242|    0.012015|
|        5331|   -6.152927|   -8.091435|    0.824242|    0.012015|
|        5332|   -6.157220|   -8.097572|    0.824242|    0.012015|
|        5333|   -6.161482|   -8.103762|    0.824242|    0.012015|
|        5334|   -6.165670|   -8.109995|    0.824242|    0.012015|
|        5335|   -6.169740|   -8.116258|    0.824242|    0.012015|
|        5336|   -6.173654|   -8.122536|    0.824242|    0.012015|
|        5337|   -6.177376|   -8.128820|    0.824243|    0.012015|
|        5338|   -6.180875|   -8.135097|    0.824243|    0.012015|
|        5339|   -6.184129|   -8.141357|    0.824243|    0.012015|
|        5340|   -6.187120|   -8.147592|    0.824243|    0.012016|
|        5341|   -6.189843|   -8.153792|    0.824243|    0.012016|
|        5342|   -6.192298|   -8.159954|    0.824243|    0.012016|
|        5343|   -6.194495|   -8.166070|    0.824243|    0.012016|
|        5344|   -6.196451|   -8.172139|    0.824243|    0.012016|
|        5345|   -6.198191|   -8.178158|    0.824244|    0.012016|
|        5346|   -6.199748|   -8.184125|    0.824244|    0.012016|
|        5347|   -6.201158|   -8.190042|    0.824244|    0.012016|
|        5348|   -6.202462|   -8.195908|    0.824244|    0.012016|
|        5349|   -6.203703|   -8.201726|    0.824244|    0.012016|
|        5350|   -6.204927|   -8.207497|    0.824244|    0.012016|
|        5351|   -6.206177|   -8.213223|    0.824244|    0.012016|
|        5352|   -6.207498|   -8.218910|    0.824244|    0.012016|
|        5353|   -6.208934|   -8.224558|    0.824244|    0.012016|
|        5354|   -6.210524|   -8.230169|    0.824244|    0.012016|
|        5355|   -6.212301|   -8.235746|    0.824244|    0.012016|
|        5356|   -6.214299|   -8.241287|    0.824244|    0.012016|
|        5357|   -6.216544|   -8.246790|    0.824244|    0.012016|
|        5358|   -6.219060|   -8.252255|    0.824244|    0.012016|
|        5359|   -6.221863|   -8.257679|    0.824244|    0.012016|
|        5360|   -6.224968|   -8.263060|    0.824244|    0.012016|
|        5361|   -6.228384|   -8.268397|    0.824244|    0.012016|
|        5362|   -6.232113|   -8.273689|    0.824244|    0.012016|
|        5363|   -6.236155|   -8.278933|    0.824244|    0.012016|
|        5364|   -6.240502|   -8.284128|    0.824244|    0.012016|
|        5365|   -6.245144|   -8.289273|    0.824244|    0.012016|
|        5366|   -6.250064|   -8.294366|    0.824244|    0.012016|
|        5367|   -6.255239|   -8.299408|    0.824244|    0.012016|
|        5368|   -6.260643|   -8.304397|    0.824244|    0.012016|
|        5369|   -6.266245|   -8.309332|    0.824244|    0.012016|
|        5370|   -6.272009|   -8.314214|    0.824244|    0.012016|
|        5371|   -6.277896|   -8.319042|    0.824244|    0.012016|
|        5372|   -6.283862|   -8.323819|    0.824244|    0.012016|
|        5373|   -6.289862|   -8.328544|    0.824244|    0.012016|
|        5374|   -6.295845|   -8.333221|    0.824244|    0.012016|
|        5375|   -6.301763|   -8.337854|    0.824244|    0.012016|
|        5376|   -6.307566|   -8.342446|    0.824244|    0.012016|
|        5377|   -6.313204|   -8.347004|    0.824244|    0.012016|
|        5378|   -6.318629|   -8.351532|    0.824244|    0.012016|
|        5379|   -6.323798|   -8.356040|    0.824244|    0.012016|
|        5380|   -6.328670|   -8.360532|    0.824244|    0.012016|
|        5381|   -6.333211|   -8.365018|    0.824244|    0.012016|
|        5382|   -6.337393|   -8.369505|    0.824244|    0.012015|
|        5383|   -6.341196|   -8.374000|    0.824244|    0.012015|
|        5384|   -6.344607|   -8.378510|    0.824244|    0.012015|
|        5385|   -6.347620|   -8.383043|    0.824244|    0.012015|
|        5386|   -6.350238|   -8.387606|    0.824244|    0.012015|
|        5387|   -6.352469|   -8.392207|    0.824244|    0.012015|
|        5388|   -6.354330|   -8.396853|    0.824244|    0.012015|
|        5389|   -6.355840|   -8.401548|    0.824244|    0.012015|
|        5390|   -6.357023|   -8.406298|    0.824244|    0.012015|
|        5391|   -6.357907|   -8.411104|    0.824244|    0.012015|
|        5392|   -6.358519|   -8.415967|    0.824244|    0.012015|
|        5393|   -6.358891|   -8.420887|    0.824244|    0.012014|
|        5394|   -6.359049|   -8.425858|    0.824244|    0.012014|
|        5395|   -6.359023|   -8.430875|    0.824244|    0.012014|
|        5396|   -6.358837|   -8.435930|    0.824245|    0.012014|
|        5397|   -6.358516|   -8.441012|    0.824245|    0.012014|
|        5398|   -6.358080|   -8.446110|    0.824245|    0.012014|
|        5399|   -6.357548|   -8.451210|    0.824245|    0.012014|
|        5400|   -6.356936|   -8.456296|    0.824245|    0.012014|
|        5401|   -6.356256|   -8.461352|    0.824245|    0.012014|
|        5402|   -6.355519|   -8.466361|    0.824245|    0.012014|
|        5403|   -6.354734|   -8.471304|    0.824245|    0.012013|
|        5404|   -6.353906|   -8.476166|    0.824246|    0.012013|
|        5405|   -6.353042|   -8.480928|    0.824246|    0.012013|
|        5406|   -6.352145|   -8.485574|    0.824246|    0.012013|
|        5407|   -6.351217|   -8.490089|    0.824246|    0.012013|
|        5408|   -6.350261|   -8.494460|    0.824246|    0.012013|
|        5409|   -6.349279|   -8.498676|    0.824246|    0.012013|
|        5410|   -6.348273|   -8.502728|    0.824247|    0.012013|
|        5411|   -6.347246|   -8.506608|    0.824247|    0.012013|
|        5412|   -6.346198|   -8.510309|    0.824247|    0.012013|
|        5413|   -6.345134|   -8.513829|    0.824247|    0.012013|
|        5414|   -6.344055|   -8.517165|    0.824247|    0.012013|
|        5415|   -6.342967|   -8.520316|    0.824247|    0.012012|
|        5416|   -6.341873|   -8.523283|    0.824247|    0.012012|
|        5417|   -6.340779|   -8.526065|    0.824248|    0.012012|
|        5418|   -6.339691|   -8.528666|    0.824248|    0.012012|
|        5419|   -6.338615|   -8.531088|    0.824248|    0.012012|
|        5420|   -6.337558|   -8.533334|    0.824248|    0.012012|
|        5421|   -6.336530|   -8.535408|    0.824248|    0.012012|
|        5422|   -6.335539|   -8.537314|    0.824248|    0.012012|
|        5423|   -6.334594|   -8.539054|    0.824248|    0.012012|
|        5424|   -6.333707|   -8.540632|    0.824248|    0.012012|
|        5425|   -6.332888|   -8.542053|    0.824248|    0.012012|
|        5426|   -6.332150|   -8.543321|    0.824249|    0.012012|
|        5427|   -6.331504|   -8.544439|    0.824249|    0.012012|
|        5428|   -6.330966|   -8.545413|    0.824249|    0.012012|
|        5429|   -6.330547|   -8.546249|    0.824249|    0.012012|
|        5430|   -6.330262|   -8.546955|    0.824249|    0.012012|
|        5431|   -6.330126|   -8.547538|    0.824249|    0.012012|
|        5432|   -6.330153|   -8.548009|    0.824249|    0.012012|
|        5433|   -6.330357|   -8.548377|    0.824249|    0.012012|
|        5434|   -6.330754|   -8.548656|    0.824249|    0.012012|
|        5435|   -6.331356|   -8.548859|    0.824249|    0.012012|
|        5436|   -6.332177|   -8.549000|    0.824249|    0.012012|
|        5437|   -6.333229|   -8.549095|    0.824249|    0.012012|
|        5438|   -6.334524|   -8.549158|    0.824249|    0.012012|
|        5439|   -6.336072|   -8.549208|    0.824249|    0.012012|
|        5440|   -6.337881|   -8.549261|    0.824249|    0.012012|
|        5441|   -6.339957|   -8.549332|    0.824249|    0.012012|
|        5442|   -6.342307|   -8.549438|    0.824249|    0.012012|
|        5443|   -6.344932|   -8.549594|    0.824249|    0.012012|
|        5444|   -6.347832|   -8.549815|    0.824249|    0.012012|
|        5445|   -6.351005|   -8.550114|    0.824249|    0.012012|
|        5446|   -6.354446|   -8.550503|    0.824249|    0.012013|
|        5447|   -6.358144|   -8.550994|    0.824249|    0.012013|
|        5448|   -6.362090|   -8.551594|    0.824249|    0.012013|
|        5449|   -6.366267|   -8.552313|    0.824249|    0.012013|
|        5450|   -6.370657|   -8.553156|    0.824249|    0.012013|
|        5451|   -6.375236|   -8.554129|    0.824249|    0.012013|
|        5452|   -6.379980|   -8.555234|    0.824249|    0.012013|
|        5453|   -6.384858|   -8.556474|    0.824249|    0.012013|
|        5454|   -6.389836|   -8.557849|    0.824249|    0.012013|
|        5455|   -6.394879|   -8.559360|    0.824249|    0.012013|
|        5456|   -6.399947|   -8.561003|    0.824249|    0.012013|
|        5457|   -6.404997|   -8.562779|    0.824248|    0.012013|
|        5458|   -6.409986|   -8.564682|    0.824248|    0.012013|
|        5459|   -6.414868|   -8.566709|    0.824248|    0.012014|
|        5460|   -6.419597|   -8.568856|    0.824248|    0.012014|
|        5461|   -6.424127|   -8.571119|    0.824248|    0.012014|
|        5462|   -6.428415|   -8.573491|    0.824248|    0.012014|
|        5463|   -6.432419|   -8.575969|    0.824248|    0.012014|
|        5464|   -6.436101|   -8.578546|    0.824248|    0.012014|
|        5465|   -6.439429|   -8.581216|    0.824248|    0.012014|
|        5466|   -6.442374|   -8.583976|    0.824247|    0.012014|
|        5467|   -6.444917|   -8.586820|    0.824247|    0.012014|
|        5468|   -6.447043|   -8.589741|    0.824247|    0.012014|
|        5469|   -6.448747|   -8.592736|    0.824247|    0.012014|
|        5470|   -6.450030|   -8.595799|    0.824247|    0.012014|
|        5471|   -6.450900|   -8.598924|    0.824247|    0.012014|
|        5472|   -6.451374|   -8.602108|    0.824246|    0.012014|
|        5473|   -6.451475|   -8.605345|    0.824246|    0.012014|
|        5474|   -6.451230|   -8.608630|    0.824246|    0.012015|
|        5475|   -6.450673|   -8.611959|    0.824246|    0.012015|
|        5476|   -6.449838|   -8.615327|    0.824246|    0.012015|
|        5477|   -6.448766|   -8.618730|    0.824246|    0.012015|
|        5478|   -6.447497|   -8.622164|    0.824245|    0.012015|
|        5479|   -6.446071|   -8.625623|    0.824245|    0.012015|
|        5480|   -6.444530|   -8.629104|    0.824245|    0.012015|
|        5481|   -6.442913|   -8.632603|    0.824245|    0.012015|
|        5482|   -6.441259|   -8.636116|    0.824245|    0.012015|
|        5483|   -6.439604|   -8.639639|    0.824245|    0.012015|
|        5484|   -6.437982|   -8.643169|    0.824244|    0.012015|
|        5485|   -6.436424|   -8.646705|    0.824244|    0.012015|
|        5486|   -6.434959|   -8.650242|    0.824244|    0.012015|
|        5487|   -6.433613|   -8.653780|    0.824244|    0.012015|
|        5488|   -6.432409|   -8.657317|    0.824244|    0.012015|
|        5489|   -6.431366|   -8.660853|    0.824243|    0.012015|
|        5490|   -6.430502|   -8.664388|    0.824243|    0.012015|
|        5491|   -6.429833|   -8.667923|    0.824243|    0.012015|
|        5492|   -6.429369|   -8.671459|    0.824243|    0.012015|
|        5493|   -6.429121|   -8.674999|    0.824243|    0.012015|
|        5494|   -6.429097|   -8.678545|    0.824243|    0.012015|
|        5495|   -6.429303|   -8.682101|    0.824243|    0.012015|
|        5496|   -6.429743|   -8.685671|    0.824242|    0.012015|
|        5497|   -6.430419|   -8.689259|    0.824242|    0.012015|
|        5498|   -6.431332|   -8.692870|    0.824242|    0.012015|
|        5499|   -6.432481|   -8.696508|    0.824242|    0.012000|
+-----------------------------------------------------------------------+
|Fixed CL Mode (Finite Difference)       |Value                         |
+-----------------------------------------------------------------------+
|Delta CL / Delta AoA                    |0.241933                      |
|Delta CD / Delta CL                     |0.0181243                     |
|Delta CMz / Delta CL                    |0.00496234                    |
+-----------------------------------------------------------------------+
Writing Flow Meta-Data file: flow.meta

----------------------------- Solver Exit -------------------------------

Maximum number of iterations reached (ITER = 5500) before convergence.
+-----------------------------------------------------------------------+
|      Convergence Field     |     Value    |   Criterion  |  Converged |
+-----------------------------------------------------------------------+
|                    rms[Rho]|      -6.43248|         < -12|          No|
+-----------------------------------------------------------------------+
-------------------------------------------------------------------------

--------------------------- Finalizing Solver ---------------------------
Deleted CNumerics container.
Deleted CIntegration container.
Deleted CSolver container.
Deleted CIteration container.
Deleted CInterface container.
Deleted CGeometry container.
Deleted CFreeFormDefBox class.
Deleted CSurfaceMovement class.
Deleted CVolumetricMovement class.
Deleted CConfig container.
Deleted nInst container.
Deleted COutput class.
-------------------------------------------------------------------------

------------------------- Exit Success (SU2_CFD) ------------------------


-------------------------------------------------------------------------
|    ___ _   _ ___                                                      |
|   / __| | | |_  )   Release 8.0.0 "Harrier"                           |
|   \__ \ |_| |/ /                                                      |
|   |___/\___//___|   Suite (Solution Exporting Code)                   |
|                                                                       |
-------------------------------------------------------------------------
| SU2 Project Website: https://su2code.github.io                        |
|                                                                       |
| The SU2 Project is maintained by the SU2 Foundation                   |
| (http://su2foundation.org)                                            |
-------------------------------------------------------------------------
| Copyright 2012-2023, SU2 Contributors                                 |
|                                                                       |
| SU2 is free software; you can redistribute it and/or                  |
| modify it under the terms of the GNU Lesser General Public            |
| License as published by the Free Software Foundation; either          |
| version 2.1 of the License, or (at your option) any later version.    |
|                                                                       |
| SU2 is distributed in the hope that it will be useful,                |
| but WITHOUT ANY WARRANTY; without even the implied warranty of        |
| MERCHANTABILITY or FITNESS FOR A PARTICULAR PURPOSE. See the GNU      |
| Lesser General Public License for more details.                       |
|                                                                       |
| You should have received a copy of the GNU Lesser General Public      |
| License along with SU2. If not, see <http://www.gnu.org/licenses/>.   |
-------------------------------------------------------------------------

----------------- Physical Case Definition ( Zone 0 ) -------------------
Input mesh file name: mesh_RAE2822_turb_deform.su2

-------------------- Output Information ( Zone 0 ) ----------------------
The tabular file format is CSV (.csv).
Flow variables file name: flow.

------------- Config File Boundary Information ( Zone 0 ) ---------------
+-----------------------------------------------------------------------+
|                        Marker Type|                        Marker Name|
+-----------------------------------------------------------------------+
|                          Far-field|                           FARFIELD|
+-----------------------------------------------------------------------+
|                     Heat flux wall|                            AIRFOIL|
+-----------------------------------------------------------------------+
Two dimensional problem.
13937 grid points before partitioning.
22842 volume elements before partitioning.
2 surface markers.
192 boundary elements in index 0 (Marker = AIRFOIL).
40 boundary elements in index 1 (Marker = FARFIELD).
Executing the partitioning functions.
Building the graph adjacency structure.
Calling ParMETIS... graph partitioning complete (831 edge cuts).
Distributing ParMETIS coloring.
Rebalancing vertices.
Rebalancing volume element connectivity.
Rebalancing markers and surface elements.
14875 vertices including ghost points. 
23674 interior elements including halo cells. 
18780 triangles.
4894 quadrilaterals.
Establishing MPI communication patterns.
Identify vertices.
Storing a mapping from global to local point index.

------------------------- Solution Postprocessing -----------------------
Reading and storing the solution from restart_flow.
Volume output fields: COORDINATES, SOLUTION
  Info: Ignoring the following screen output fields:
  RMS_DENSITY, RMS_NU_TILDE, LIFT, DRAG
Screen output fields: INNER_ITER
  Info: Ignoring the following history output groups:
  RMS_RES, AERO_COEFF
History output group(s): ITER
Warning: No (valid) fields chosen for convergence monitoring. Convergence monitoring inactive.
Warning: No (valid) fields chosen for time convergence monitoring. Time convergence monitoring inactive.
|Paraview                           |flow.vtu                           |
|Paraview surface                   |surface_flow.vtu                   |
|CSV file                           |surface_flow.csv                   |

------------------------- Finalize Solver -------------------------
Deleted CGeometry container.
Deleted CSolver class.
Deleted CConfig container.
Deleted COutput class.

Completed in 0.015030 seconds on 6 cores.

------------------------- Exit Success (SU2_SOL) ------------------------

