
-------------------------------------------------------------------------
|    ___ _   _ ___                                                      |
|   / __| | | |_  )   Release 8.0.0 "Harrier"                           |
|   \__ \ |_| |/ /                                                      |
|   |___/\___//___|   Suite (Computational Fluid Dynamics Code)         |
|                                                                       |
-------------------------------------------------------------------------
| SU2 Project Website: https://su2code.github.io                        |
|                                                                       |
| The SU2 Project is maintained by the SU2 Foundation                   |
| (http://su2foundation.org)                                            |
-------------------------------------------------------------------------
| Copyright 2012-2023, SU2 Contributors                                 |
|                                                                       |
| SU2 is free software; you can redistribute it and/or                  |
| modify it under the terms of the GNU Lesser General Public            |
| License as published by the Free Software Foundation; either          |
| version 2.1 of the License, or (at your option) any later version.    |
|                                                                       |
| SU2 is distributed in the hope that it will be useful,                |
| but WITHOUT ANY WARRANTY; without even the implied warranty of        |
| MERCHANTABILITY or FITNESS FOR A PARTICULAR PURPOSE. See the GNU      |
| Lesser General Public License for more details.                       |
|                                                                       |
| You should have received a copy of the GNU Lesser General Public      |
| License along with SU2. If not, see <http://www.gnu.org/licenses/>.   |
-------------------------------------------------------------------------

Parsing config file for zone 0

----------------- Physical Case Definition ( Zone 0 ) -------------------
Compressible Euler equations.
Mach number: 0.729.
Angle of attack (AoA): 2 deg, and angle of sideslip (AoS): 0 deg.
Reading and writing binary SU2 native restart files.
Read flow solution from: restart_flow.dat.
Dimensional simulation.
The reference area is 1 m^2.
The semi-span will be computed using the max y(3D) value.
The reference length is 1 m.
Surface(s) where the force coefficients are evaluated and 
their reference origin for moment computation: 
   - Airfoil (0.25, 0, 0).
   - Flap (0.25, 0, 0).
   - Slat (0.25, 0, 0) m.
Surface(s) plotted in the output file: Airfoil, Flap, Slat.
Input mesh file name: Mesh.su2

--------------- Space Numerical Integration ( Zone 0 ) ------------------
Roe (with entropy fix = 0.001) solver for the flow inviscid terms.
Standard Roe without low-dissipation function.
Second order integration in space, with slope limiter.
Venkatakrishnan slope-limiting method, with constant: 0.03.
The reference element size is: 1. 
Gradient for upwind reconstruction: inverse-distance weighted Least-Squares.
Gradient for viscous and source terms: inverse-distance weighted Least-Squares.

--------------- Time Numerical Integration  ( Zone 0 ) ------------------
Local time stepping (steady state simulation).
Euler implicit method for the flow equations.
FGMRES is used for solving the linear system.
Using a ILU(0) preconditioning.
Convergence criteria of the linear solver: 0.01.
Max number of linear iterations: 5.
CFL adaptation. Factor down: 0.5, factor up: 1.1,
                lower limit: 50, upper limit: 10000,
                acceptable linear residual: 0.01.
Courant-Friedrichs-Lewy number:       20

------------------ Convergence Criteria  ( Zone 0 ) ---------------------
Maximum number of solver subiterations: 300.
Begin convergence monitoring at iteration 10.
Residual minimum value: 1e-14.
Cauchy series min. value: 1e-06.
Number of Cauchy elements: 100.
Begin windowed time average at iteration 0.

-------------------- Output Information ( Zone 0 ) ----------------------
File writing frequency: 
+------------------------------------+
|                     File| Frequency|
+------------------------------------+
|                  RESTART|      1000|
|                 PARAVIEW|      1000|
|         SURFACE_PARAVIEW|      1000|
+------------------------------------+
Writing the convergence history file every 1 inner iterations.
Writing the screen convergence history every 1 inner iterations.
The tabular file format is CSV (.csv).
Convergence history file name: historyThird.
Forces breakdown file name: forces_breakdown.dat.
Surface file name: surface_flow.
Volume file name: flow.
Restart file name: restart_flow.dat.

------------- Config File Boundary Information ( Zone 0 ) ---------------
+-----------------------------------------------------------------------+
|                        Marker Type|                        Marker Name|
+-----------------------------------------------------------------------+
|                         Euler wall|                            Airfoil|
|                                   |                                0.0|
|                                   |                               Flap|
|                                   |                                0.0|
|                                   |                               Slat|
|                                   |                                0.0|
+-----------------------------------------------------------------------+
|                          Far-field|                           Farfield|
+-----------------------------------------------------------------------+

-------------------- Output Preprocessing ( Zone 0 ) --------------------

WARNING: SURFACE_PRESSURE_DROP can only be computed for at least 2 surfaces (outlet, inlet, ...)

Screen output fields: INNER_ITER, WALL_TIME, RMS_DENSITY, LIFT, DRAG, LINSOL_ITER, LINSOL_RESIDUAL, MIN_CFL, MAX_CFL, AVG_CFL
  Info: Ignoring the following history output groups:
  RESIDUALS, CFL
History output group(s): INNER_ITER, LIFT, DRAG
Convergence field(s): LIFT
Warning: No (valid) fields chosen for time convergence monitoring. Time convergence monitoring inactive.
  Info: Ignoring the following volume output fields/groups:
  RESIDUALS, WALL_DISTANCE
Volume output fields: SOLUTION, PRIMITIVE, GRADIENTS, HESSIANS, EIGENVALUES, COORDINATES

------------------- Geometry Preprocessing ( Zone 0 ) -------------------
Two dimensional problem.
72255 grid points before partitioning.
73083 volume elements before partitioning.
4 surface markers.
470 boundary elements in index 0 (Marker = Airfoil).
158 boundary elements in index 1 (Marker = Farfield).
235 boundary elements in index 2 (Marker = Flap).
234 boundary elements in index 3 (Marker = Slat).
Executing the partitioning functions.
Building the graph adjacency structure.
Calling ParMETIS... graph partitioning complete (1048 edge cuts).
Distributing ParMETIS coloring.
Rebalancing vertices.
Rebalancing volume element connectivity.
Rebalancing markers and surface elements.
74345 vertices including ghost points. 
74131 interior elements including halo cells. 
2769 triangles.
71362 quadrilaterals.
Establishing MPI communication patterns.
Setting point connectivity.
Renumbering points (Reverse Cuthill McKee Ordering).
Recomputing point connectivity.
Setting element connectivity.
Checking the numerical grid orientation.
All volume elements are correctly orientend.
All surface elements are correctly orientend.
Identifying edges and vertices.
Setting the control volume structure.
Area of the computational grid: 31407.7.
Searching for the closest normal neighbors to the surfaces.
Storing a mapping from global to local point index.
Compute the surface curvature.
Max K: 19703. Mean K: 95.1377. Standard deviation K: 1057.68.
Checking for periodicity.
Computing mesh quality statistics for the dual control volumes.
+--------------------------------------------------------------+
|           Mesh Quality Metric|        Minimum|        Maximum|
+--------------------------------------------------------------+
|    Orthogonality Angle (deg.)|        52.5136|             90|
|     CV Face Area Aspect Ratio|        1.00165|         9998.3|
|           CV Sub-Volume Ratio|              1|        8.38998|
+--------------------------------------------------------------+
Finding max control volume width.
Communicating number of neighbors.
Wetted area = 2.56886 m.
Area projection in the x-plane = 0.364638 m, y-plane = 1.14803 m.
Max. coordinate in the x-direction = 1.06769 m, y-direction = 0.0602555 m.
Min. coordinate in the x-direction = -0.0559859 m, y-direction = -0.147724 m.
Checking if Euler & Symmetry markers are straight/plane:
Boundary marker Airfoil is NOT a single straight.
Boundary marker 0.0 is a single straight.
Boundary marker Flap is NOT a single straight.
Boundary marker 0.0 is a single straight.
Boundary marker Slat is NOT a single straight.
Boundary marker 0.0 is a single straight.
Computing wall distances.

-------------------- Solver Preprocessing ( Zone 0 ) --------------------
Inviscid flow: Computing density based on free-stream
temperature and pressure using the ideal gas law.
Force coefficients computed using free-stream values.

-- Models:
+------------------------------------------------------------------------------+
|          Viscosity Model|        Conductivity Model|              Fluid Model|
+------------------------------------------------------------------------------+
|                        -|                         -|             STANDARD_AIR|
+------------------------------------------------------------------------------+
-- Fluid properties:
+------------------------------------------------------------------------------+
|                  Name|    Dim. value|    Ref. value|      Unit|Non-dim. value|
+------------------------------------------------------------------------------+
|          Gas Constant|       287.058|             1|  N.m/kg.K|       287.058|
|      Spec. Heat Ratio|             -|             -|         -|           1.4|
+------------------------------------------------------------------------------+
-- Initial and free-stream conditions:
+------------------------------------------------------------------------------+
|                  Name|    Dim. value|    Ref. value|      Unit|Non-dim. value|
+------------------------------------------------------------------------------+
|       Static Pressure|        101325|             1|        Pa|        101325|
|               Density|       1.22498|             1|    kg/m^3|       1.22498|
|           Temperature|        288.15|             1|         K|        288.15|
|          Total Energy|        237560|             1|   m^2/s^2|        237560|
|            Velocity-X|       247.925|             1|       m/s|       247.925|
|            Velocity-Y|       8.65775|             1|       m/s|       8.65775|
|    Velocity Magnitude|       248.077|             1|       m/s|       248.077|
+------------------------------------------------------------------------------+
|           Mach Number|             -|             -|         -|         0.729|
+------------------------------------------------------------------------------+
Initialize Jacobian structure (Euler). MG level: 0.

------------------- Numerics Preprocessing ( Zone 0 ) -------------------

----------------- Integration Preprocessing ( Zone 0 ) ------------------

------------------- Iteration Preprocessing ( Zone 0 ) ------------------
Euler/Navier-Stokes/RANS fluid iteration.

------------------------------ Begin Solver -----------------------------

Simulation Run using the Single-zone Driver
WARNING: SU2 was not compiled for an AVX-capable architecture. Performance could be better,
         see https://su2code.github.io/docs_v7/Build-SU2-Linux-MacOS/#compiler-optimizations
+---------------------------------------------------------------------------------------------------------------------------------+
|  Inner_Iter|   Time(sec)|    rms[Rho]|          CL|          CD|Linear_Solve|   LinSolRes|     Min CFL|     Max CFL|     Avg CFL|
+---------------------------------------------------------------------------------------------------------------------------------+
|           0|  1.0669e-01|   -1.709594|    1.822836|    0.285698|           5|   -2.009426|  5.0000e+01|  5.0000e+01|  5.0000e+01|
|           1|  9.8241e-02|   -1.723504|    1.820750|    0.277420|           5|   -1.129580|  5.0000e+01|  5.0000e+01|  5.0000e+01|
|           2|  9.4424e-02|   -1.714733|    1.817803|    0.267770|           5|   -1.163318|  5.0000e+01|  5.0000e+01|  5.0000e+01|
|           3|  9.3653e-02|   -1.730740|    1.812493|    0.260036|           5|   -1.167875|  5.0000e+01|  5.0000e+01|  5.0000e+01|
|           4|  9.2265e-02|   -1.734714|    1.806252|    0.254187|           5|   -1.201827|  5.0000e+01|  5.0000e+01|  5.0000e+01|
|           5|  9.1408e-02|   -1.731252|    1.798889|    0.248998|           5|   -1.251383|  5.0000e+01|  5.0000e+01|  5.0000e+01|
|           6|  9.0746e-02|   -1.738559|    1.791347|    0.242290|           5|   -1.255080|  5.0000e+01|  5.0000e+01|  5.0000e+01|
|           7|  9.0276e-02|   -1.746497|    1.787400|    0.232456|           5|   -1.227542|  5.0000e+01|  5.0000e+01|  5.0000e+01|
|           8|  8.9937e-02|   -1.795352|    1.787859|    0.217960|           5|   -1.173447|  5.0000e+01|  5.0000e+01|  5.0000e+01|
|           9|  8.9701e-02|   -1.828282|    1.791908|    0.199002|           5|   -1.161593|  5.0000e+01|  5.0000e+01|  5.0000e+01|
|          10|  1.2597e-01|   -1.860371|    1.801844|    0.172170|           5|   -0.887287|  5.0000e+01|  5.0000e+01|  5.0000e+01|
|          11|  1.5093e-01|   -1.917921|    1.809178|    0.158043|           5|   -0.861482|  5.0000e+01|  5.0000e+01|  5.0000e+01|
|          12|  1.6511e-01|   -1.900818|    1.816741|    0.151332|           5|   -0.796739|  5.0000e+01|  5.0000e+01|  5.0000e+01|
|          13|  1.7731e-01|   -1.894177|    1.825899|    0.151975|           5|   -0.596154|  5.0000e+01|  5.0000e+01|  5.0000e+01|
|          14|  2.0958e-01|   -1.962744|    1.827129|    0.152330|           5|   -0.338427|  5.0000e+01|  5.0000e+01|  5.0000e+01|
|          15|  2.1719e-01|   -1.986876|    1.829762|    0.153101|           5|   -0.340842|  5.0000e+01|  5.0000e+01|  5.0000e+01|
|          16|  2.2406e-01|   -2.003971|    1.833737|    0.154481|           5|   -0.336150|  5.0000e+01|  5.0000e+01|  5.0000e+01|
|          17|  2.4703e-01|   -2.016663|    1.835210|    0.155255|           5|   -0.305100|  5.0000e+01|  5.0000e+01|  5.0000e+01|
|          18|  2.5151e-01|   -2.018576|    1.836254|    0.155705|           5|   -0.303268|  5.0000e+01|  5.0000e+01|  5.0000e+01|
|          19|  2.5571e-01|   -2.020819|    1.838895|    0.156941|           5|   -0.326690|  5.0000e+01|  5.0000e+01|  5.0000e+01|
|          20|  2.5946e-01|   -2.031257|    1.839031|    0.157017|           5|   -0.296053|  5.0000e+01|  5.0000e+01|  5.0000e+01|
|          21|  2.8240e-01|   -2.031178|    1.839427|    0.157194|           5|   -0.299216|  5.0000e+01|  5.0000e+01|  5.0000e+01|
|          22|  2.9272e-01|   -2.032537|    1.840269|    0.157641|           5|   -0.300085|  5.0000e+01|  5.0000e+01|  5.0000e+01|
|          23|  2.9442e-01|   -2.030433|    1.840220|    0.157657|           5|   -0.296166|  5.0000e+01|  5.0000e+01|  5.0000e+01|
|          24|  2.9603e-01|   -2.030798|    1.840636|    0.157885|           5|   -0.299449|  5.0000e+01|  5.0000e+01|  5.0000e+01|
|          25|  3.1146e-01|   -2.029681|    1.840849|    0.158017|           5|   -0.295569|  5.0000e+01|  5.0000e+01|  5.0000e+01|
|          26|  3.1472e-01|   -2.030406|    1.840822|    0.158016|           5|   -0.296117|  5.0000e+01|  5.0000e+01|  5.0000e+01|
|          27|  3.1541e-01|   -2.030689|    1.840820|    0.158025|           5|   -0.294887|  5.0000e+01|  5.0000e+01|  5.0000e+01|
|          28|  3.1603e-01|   -2.030559|    1.840800|    0.158007|           5|   -0.294918|  5.0000e+01|  5.0000e+01|  5.0000e+01|
|          29|  3.2472e-01|   -2.030721|    1.840886|    0.158070|           5|   -0.295317|  5.0000e+01|  5.0000e+01|  5.0000e+01|
|          30|  3.2509e-01|   -2.030405|    1.840891|    0.158081|           5|   -0.294897|  5.0000e+01|  5.0000e+01|  5.0000e+01|
|          31|  3.2551e-01|   -2.030538|    1.840955|    0.158098|           5|   -0.295578|  5.0000e+01|  5.0000e+01|  5.0000e+01|
|          32|  3.3681e-01|   -2.030676|    1.841064|    0.158154|           5|   -0.296551|  5.0000e+01|  5.0000e+01|  5.0000e+01|
|          33|  3.3660e-01|   -2.030970|    1.841187|    0.158203|           5|   -0.295809|  5.0000e+01|  5.0000e+01|  5.0000e+01|
|          34|  3.3659e-01|   -2.030733|    1.841247|    0.158232|           5|   -0.296136|  5.0000e+01|  5.0000e+01|  5.0000e+01|
|          35|  3.3927e-01|   -2.031896|    1.841264|    0.158277|           5|   -0.295228|  5.0000e+01|  5.0000e+01|  5.0000e+01|
|          36|  3.4466e-01|   -2.031983|    1.841253|    0.158255|           5|   -0.295712|  5.0000e+01|  5.0000e+01|  5.0000e+01|
|          37|  3.4439e-01|   -2.032641|    1.841352|    0.158304|           5|   -0.295001|  5.0000e+01|  5.0000e+01|  5.0000e+01|
|          38|  3.4414e-01|   -2.032160|    1.841348|    0.158286|           5|   -0.295089|  5.0000e+01|  5.0000e+01|  5.0000e+01|
|          39|  3.4883e-01|   -2.032188|    1.841346|    0.158280|           5|   -0.294860|  5.0000e+01|  5.0000e+01|  5.0000e+01|
|          40|  3.5131e-01|   -2.032024|    1.841347|    0.158291|           5|   -0.294823|  5.0000e+01|  5.0000e+01|  5.0000e+01|
|          41|  3.5097e-01|   -2.032191|    1.841344|    0.158299|           5|   -0.295024|  5.0000e+01|  5.0000e+01|  5.0000e+01|
|          42|  3.5066e-01|   -2.032189|    1.841362|    0.158316|           5|   -0.294964|  5.0000e+01|  5.0000e+01|  5.0000e+01|
|          43|  3.5481e-01|   -2.032142|    1.841363|    0.158317|           5|   -0.294728|  5.0000e+01|  5.0000e+01|  5.0000e+01|
|          44|  3.5623e-01|   -2.032106|    1.841482|    0.158363|           5|   -0.296438|  5.0000e+01|  5.0000e+01|  5.0000e+01|
|          45|  3.5588e-01|   -2.033000|    1.841483|    0.158386|           5|   -0.294910|  5.0000e+01|  5.0000e+01|  5.0000e+01|
|          46|  3.5580e-01|   -2.033243|    1.841485|    0.158389|           5|   -0.295313|  5.0000e+01|  5.0000e+01|  5.0000e+01|
|          47|  3.6162e-01|   -2.033411|    1.841620|    0.158468|           5|   -0.296241|  5.0000e+01|  5.0000e+01|  5.0000e+01|
|          48|  3.6148e-01|   -2.032450|    1.841681|    0.158490|           5|   -0.295259|  5.0000e+01|  5.0000e+01|  5.0000e+01|
|          49|  3.6098e-01|   -2.033775|    1.842049|    0.158686|           5|   -0.298319|  5.0000e+01|  5.0000e+01|  5.0000e+01|
|          50|  3.6068e-01|   -2.034804|    1.842185|    0.158760|           5|   -0.296016|  5.0000e+01|  5.0000e+01|  5.0000e+01|
|          51|  3.6783e-01|   -2.035178|    1.842407|    0.158850|           5|   -0.296099|  5.0000e+01|  5.0000e+01|  5.0000e+01|
|          52|  3.6786e-01|   -2.034912|    1.842473|    0.158892|           5|   -0.295176|  5.0000e+01|  5.0000e+01|  5.0000e+01|
|          53|  3.6729e-01|   -2.035066|    1.842745|    0.159016|           5|   -0.296043|  5.0000e+01|  5.0000e+01|  5.0000e+01|
|          54|  3.6673e-01|   -2.035393|    1.842833|    0.159057|           5|   -0.295107|  5.0000e+01|  5.0000e+01|  5.0000e+01|
|          55|  3.6651e-01|   -2.035493|    1.843252|    0.159255|           5|   -0.298402|  5.0000e+01|  5.0000e+01|  5.0000e+01|
|          56|  3.7594e-01|   -2.036480|    1.843241|    0.159249|           5|   -0.297259|  5.0000e+01|  5.0000e+01|  5.0000e+01|
|          57|  3.7527e-01|   -2.035902|    1.843312|    0.159286|           5|   -0.295010|  5.0000e+01|  5.0000e+01|  5.0000e+01|
|          58|  3.7462e-01|   -2.035676|    1.843345|    0.159308|           5|   -0.295238|  5.0000e+01|  5.0000e+01|  5.0000e+01|
|          59|  3.7446e-01|   -2.035835|    1.843366|    0.159325|           5|   -0.294925|  5.0000e+01|  5.0000e+01|  5.0000e+01|
|          60|  3.7823e-01|   -2.035992|    1.843389|    0.159324|           5|   -0.296585|  5.0000e+01|  5.0000e+01|  5.0000e+01|
|          61|  3.7867e-01|   -2.036357|    1.843627|    0.159449|           5|   -0.297456|  5.0000e+01|  5.0000e+01|  5.0000e+01|
|          62|  3.7804e-01|   -2.037812|    1.843644|    0.159459|           5|   -0.294554|  5.0000e+01|  5.0000e+01|  5.0000e+01|
|          63|  3.7741e-01|   -2.037931|    1.843684|    0.159472|           5|   -0.294781|  5.0000e+01|  5.0000e+01|  5.0000e+01|
|          64|  3.7992e-01|   -2.037949|    1.843708|    0.159481|           5|   -0.294581|  5.0000e+01|  5.0000e+01|  5.0000e+01|
|          65|  3.8158e-01|   -2.038083|    1.843726|    0.159487|           5|   -0.294646|  5.0000e+01|  5.0000e+01|  5.0000e+01|
|          66|  3.8090e-01|   -2.038118|    1.843720|    0.159488|           5|   -0.294560|  5.0000e+01|  5.0000e+01|  5.0000e+01|
|          67|  3.8029e-01|   -2.038174|    1.843719|    0.159489|           5|   -0.294531|  5.0000e+01|  5.0000e+01|  5.0000e+01|
|          68|  3.8438e-01|   -2.038167|    1.843730|    0.159496|           5|   -0.294521|  5.0000e+01|  5.0000e+01|  5.0000e+01|
|          69|  3.8365e-01|   -2.038182|    1.843741|    0.159511|           5|   -0.294592|  5.0000e+01|  5.0000e+01|  5.0000e+01|
|          70|  3.8299e-01|   -2.038226|    1.843737|    0.159509|           5|   -0.294483|  5.0000e+01|  5.0000e+01|  5.0000e+01|
|          71|  3.8235e-01|   -2.038217|    1.843719|    0.159500|           5|   -0.294531|  5.0000e+01|  5.0000e+01|  5.0000e+01|
|          72|  3.8454e-01|   -2.038296|    1.843750|    0.159512|           5|   -0.294637|  5.0000e+01|  5.0000e+01|  5.0000e+01|
|          73|  3.8566e-01|   -2.038381|    1.843740|    0.159507|           5|   -0.294574|  5.0000e+01|  5.0000e+01|  5.0000e+01|
|          74|  3.8500e-01|   -2.038450|    1.843723|    0.159498|           5|   -0.294568|  5.0000e+01|  5.0000e+01|  5.0000e+01|
|          75|  3.8439e-01|   -2.038419|    1.843698|    0.159485|           5|   -0.294879|  5.0000e+01|  5.0000e+01|  5.0000e+01|
|          76|  3.8396e-01|   -2.038525|    1.843783|    0.159532|           5|   -0.294917|  5.0000e+01|  5.0000e+01|  5.0000e+01|
|          77|  3.8776e-01|   -2.038312|    1.844022|    0.159662|           5|   -0.296219|  5.0000e+01|  5.0000e+01|  5.0000e+01|
|          78|  3.8792e-01|   -2.037709|    1.844062|    0.159688|           5|   -0.294882|  5.0000e+01|  5.0000e+01|  5.0000e+01|
|          79|  3.8733e-01|   -2.037768|    1.844122|    0.159727|           5|   -0.295058|  5.0000e+01|  5.0000e+01|  5.0000e+01|
|          80|  3.8681e-01|   -2.037684|    1.844163|    0.159750|           5|   -0.294663|  5.0000e+01|  5.0000e+01|  5.0000e+01|
|          81|  3.8876e-01|   -2.037556|    1.844367|    0.159872|           5|   -0.295785|  5.0000e+01|  5.0000e+01|  5.0000e+01|
|          82|  3.8961e-01|   -2.037514|    1.844366|    0.159872|           5|   -0.294793|  5.0000e+01|  5.0000e+01|  5.0000e+01|
|          83|  3.8897e-01|   -2.037620|    1.844735|    0.160094|           5|   -0.296045|  5.0000e+01|  5.0000e+01|  5.0000e+01|
|          84|  3.8836e-01|   -2.036330|    1.845530|    0.160565|           5|   -0.300733|  5.0000e+01|  5.0000e+01|  5.0000e+01|
|          85|  3.9096e-01|   -2.034412|    1.845539|    0.160551|           5|   -0.294841|  5.0000e+01|  5.0000e+01|  5.0000e+01|
|          86|  3.9027e-01|   -2.034488|    1.845593|    0.160580|           5|   -0.294789|  5.0000e+01|  5.0000e+01|  5.0000e+01|
|          87|  3.8965e-01|   -2.034501|    1.845810|    0.160698|           5|   -0.296068|  5.0000e+01|  5.0000e+01|  5.0000e+01|
|          88|  3.8905e-01|   -2.033268|    1.846255|    0.160968|           5|   -0.300371|  5.0000e+01|  5.0000e+01|  5.0000e+01|
|          89|  3.9181e-01|   -2.033308|    1.846291|    0.160991|           5|   -0.294773|  5.0000e+01|  5.0000e+01|  5.0000e+01|
|          90|  3.9150e-01|   -2.033291|    1.846275|    0.160981|           5|   -0.294683|  5.0000e+01|  5.0000e+01|  5.0000e+01|
|          91|  3.9092e-01|   -2.033545|    1.846287|    0.160990|           5|   -0.294709|  5.0000e+01|  5.0000e+01|  5.0000e+01|
|          92|  3.9034e-01|   -2.033563|    1.846298|    0.160992|           5|   -0.294702|  5.0000e+01|  5.0000e+01|  5.0000e+01|
|          93|  3.9140e-01|   -2.033494|    1.846297|    0.160992|           5|   -0.294558|  5.0000e+01|  5.0000e+01|  5.0000e+01|
|          94|  3.9260e-01|   -2.033496|    1.846303|    0.160998|           5|   -0.294745|  5.0000e+01|  5.0000e+01|  5.0000e+01|
|          95|  3.9201e-01|   -2.033591|    1.846300|    0.160995|           5|   -0.294727|  5.0000e+01|  5.0000e+01|  5.0000e+01|
|          96|  3.9143e-01|   -2.033693|    1.846306|    0.160999|           5|   -0.294670|  5.0000e+01|  5.0000e+01|  5.0000e+01|
|          97|  3.9310e-01|   -2.033732|    1.846302|    0.160993|           5|   -0.294548|  5.0000e+01|  5.0000e+01|  5.0000e+01|
|          98|  3.9286e-01|   -2.033769|    1.846248|    0.160961|           5|   -0.294934|  5.0000e+01|  5.0000e+01|  5.0000e+01|
|          99|  3.9229e-01|   -2.034306|    1.846224|    0.160935|           5|   -0.296643|  5.0000e+01|  5.0000e+01|  5.0000e+01|
|         100|  3.9178e-01|   -2.034335|    1.846308|    0.160988|           5|   -0.294959|  5.0000e+01|  5.0000e+01|  5.0000e+01|
|         101|  3.9436e-01|   -2.034054|    1.846447|    0.161070|           5|   -0.295433|  5.0000e+01|  5.0000e+01|  5.0000e+01|
|         102|  3.9374e-01|   -2.032959|    1.846450|    0.161073|           5|   -0.294582|  5.0000e+01|  5.0000e+01|  5.0000e+01|
|         103|  3.9319e-01|   -2.033066|    1.846481|    0.161111|           5|   -0.294870|  5.0000e+01|  5.0000e+01|  5.0000e+01|
|         104|  3.9267e-01|   -2.033082|    1.846484|    0.161093|           5|   -0.294801|  5.0000e+01|  5.0000e+01|  5.0000e+01|
|         105|  3.9460e-01|   -2.033476|    1.846517|    0.161115|           5|   -0.294777|  5.0000e+01|  5.0000e+01|  5.0000e+01|
|         106|  3.9458e-01|   -2.033411|    1.846521|    0.161118|           5|   -0.295126|  5.0000e+01|  5.0000e+01|  5.0000e+01|
|         107|  3.9404e-01|   -2.033349|    1.846510|    0.161115|           5|   -0.294627|  5.0000e+01|  5.0000e+01|  5.0000e+01|
|         108|  3.9353e-01|   -2.032886|    1.846571|    0.161145|           5|   -0.295074|  5.0000e+01|  5.0000e+01|  5.0000e+01|
|         109|  3.9594e-01|   -2.032518|    1.846573|    0.161145|           5|   -0.294827|  5.0000e+01|  5.0000e+01|  5.0000e+01|
|         110|  3.9537e-01|   -2.032830|    1.846584|    0.161141|           5|   -0.294869|  5.0000e+01|  5.0000e+01|  5.0000e+01|
|         111|  3.9486e-01|   -2.032998|    1.846574|    0.161136|           5|   -0.294891|  5.0000e+01|  5.0000e+01|  5.0000e+01|
|         112|  3.9443e-01|   -2.033212|    1.846599|    0.161146|           5|   -0.294702|  5.0000e+01|  5.0000e+01|  5.0000e+01|
|         113|  3.9394e-01|   -2.033006|    1.846598|    0.161160|           5|   -0.294766|  5.0000e+01|  5.0000e+01|  5.0000e+01|
|         114|  3.9346e-01|   -2.033502|    1.846609|    0.161167|           5|   -0.294659|  5.0000e+01|  5.0000e+01|  5.0000e+01|
|         115|  3.9523e-01|   -2.033488|    1.846622|    0.161167|           5|   -0.294861|  5.0000e+01|  5.0000e+01|  5.0000e+01|
|         116|  3.9472e-01|   -2.033285|    1.846653|    0.161179|           5|   -0.294763|  5.0000e+01|  5.0000e+01|  5.0000e+01|
|         117|  3.9423e-01|   -2.033171|    1.846637|    0.161158|           5|   -0.294853|  5.0000e+01|  5.0000e+01|  5.0000e+01|
|         118|  3.9379e-01|   -2.033685|    1.846634|    0.161153|           5|   -0.294554|  5.0000e+01|  5.0000e+01|  5.0000e+01|
|         119|  3.9587e-01|   -2.033690|    1.846642|    0.161161|           5|   -0.294755|  5.0000e+01|  5.0000e+01|  5.0000e+01|
|         120|  3.9534e-01|   -2.033478|    1.846660|    0.161175|           5|   -0.294821|  5.0000e+01|  5.0000e+01|  5.0000e+01|
|         121|  3.9491e-01|   -2.032872|    1.846658|    0.161170|           5|   -0.294598|  5.0000e+01|  5.0000e+01|  5.0000e+01|
|         122|  3.9448e-01|   -2.032788|    1.846669|    0.161176|           5|   -0.295598|  5.0000e+01|  5.0000e+01|  5.0000e+01|
|         123|  3.9406e-01|   -2.033876|    1.846688|    0.161188|           5|   -0.294744|  5.0000e+01|  5.0000e+01|  5.0000e+01|
|         124|  3.9366e-01|   -2.033900|    1.846702|    0.161196|           5|   -0.294734|  5.0000e+01|  5.0000e+01|  5.0000e+01|
|         125|  3.9325e-01|   -2.034152|    1.846719|    0.161196|           5|   -0.294936|  5.0000e+01|  5.0000e+01|  5.0000e+01|
|         126|  3.9392e-01|   -2.034227|    1.846823|    0.161240|           5|   -0.296196|  5.0000e+01|  5.0000e+01|  5.0000e+01|
|         127|  3.9482e-01|   -2.032844|    1.846823|    0.161248|           5|   -0.294632|  5.0000e+01|  5.0000e+01|  5.0000e+01|
|         128|  3.9437e-01|   -2.032920|    1.846872|    0.161273|           5|   -0.295491|  5.0000e+01|  5.0000e+01|  5.0000e+01|
|         129|  3.9395e-01|   -2.033745|    1.846876|    0.161272|           5|   -0.294924|  5.0000e+01|  5.0000e+01|  5.0000e+01|
|         130|  3.9353e-01|   -2.033821|    1.846868|    0.161254|           5|   -0.295512|  5.0000e+01|  5.0000e+01|  5.0000e+01|
|         131|  3.9539e-01|   -2.034043|    1.846904|    0.161281|           5|   -0.295239|  5.0000e+01|  5.0000e+01|  5.0000e+01|
|         132|  3.9497e-01|   -2.033422|    1.846900|    0.161267|           5|   -0.294833|  5.0000e+01|  5.0000e+01|  5.0000e+01|
|         133|  3.9456e-01|   -2.033412|    1.846933|    0.161303|           5|   -0.296061|  5.0000e+01|  5.0000e+01|  5.0000e+01|
|         134|  3.9418e-01|   -2.032886|    1.846905|    0.161285|           5|   -0.295207|  5.0000e+01|  5.0000e+01|  5.0000e+01|
|         135|  3.9406e-01|   -2.033321|    1.846903|    0.161287|           5|   -0.294895|  5.0000e+01|  5.0000e+01|  5.0000e+01|
|         136|  3.9619e-01|   -2.033442|    1.846903|    0.161279|           5|   -0.294666|  5.0000e+01|  5.0000e+01|  5.0000e+01|
|         137|  3.9577e-01|   -2.033446|    1.846899|    0.161277|           5|   -0.294526|  5.0000e+01|  5.0000e+01|  5.0000e+01|
|         138|  3.9536e-01|   -2.033536|    1.846945|    0.161301|           5|   -0.295066|  5.0000e+01|  5.0000e+01|  5.0000e+01|
|         139|  3.9494e-01|   -2.033415|    1.846957|    0.161293|           5|   -0.294612|  5.0000e+01|  5.0000e+01|  5.0000e+01|
|         140|  3.9574e-01|   -2.033447|    1.847027|    0.161326|           5|   -0.295139|  5.0000e+01|  5.0000e+01|  5.0000e+01|
|         141|  3.9700e-01|   -2.032779|    1.847032|    0.161330|           5|   -0.294962|  5.0000e+01|  5.0000e+01|  5.0000e+01|
|         142|  3.9658e-01|   -2.033475|    1.847054|    0.161333|           5|   -0.294578|  5.0000e+01|  5.0000e+01|  5.0000e+01|
|         143|  3.9618e-01|   -2.033217|    1.847053|    0.161344|           5|   -0.294499|  5.0000e+01|  5.0000e+01|  5.0000e+01|
|         144|  3.9578e-01|   -2.033353|    1.847048|    0.161341|           5|   -0.294520|  5.0000e+01|  5.0000e+01|  5.0000e+01|
|         145|  3.9762e-01|   -2.033391|    1.847047|    0.161359|           5|   -0.294626|  5.0000e+01|  5.0000e+01|  5.0000e+01|
|         146|  3.9772e-01|   -2.033475|    1.847053|    0.161354|           5|   -0.294548|  5.0000e+01|  5.0000e+01|  5.0000e+01|
|         147|  3.9731e-01|   -2.033462|    1.847058|    0.161340|           5|   -0.294450|  5.0000e+01|  5.0000e+01|  5.0000e+01|
|         148|  3.9691e-01|   -2.033460|    1.847063|    0.161347|           5|   -0.294485|  5.0000e+01|  5.0000e+01|  5.0000e+01|
|         149|  3.9824e-01|   -2.033366|    1.847063|    0.161349|           5|   -0.294429|  5.0000e+01|  5.0000e+01|  5.0000e+01|
|         150|  3.9781e-01|   -2.033369|    1.847052|    0.161328|           5|   -0.294487|  5.0000e+01|  5.0000e+01|  5.0000e+01|
|         151|  3.9740e-01|   -2.033432|    1.847074|    0.161350|           5|   -0.294472|  5.0000e+01|  5.0000e+01|  5.0000e+01|
|         152|  3.9812e-01|   -2.033403|    1.847077|    0.161351|           5|   -0.294450|  5.0000e+01|  5.0000e+01|  5.0000e+01|
|         153|  3.9871e-01|   -2.033454|    1.847078|    0.161353|           5|   -0.294461|  5.0000e+01|  5.0000e+01|  5.0000e+01|
|         154|  3.9834e-01|   -2.033450|    1.847081|    0.161356|           5|   -0.294425|  5.0000e+01|  5.0000e+01|  5.0000e+01|
|         155|  3.9799e-01|   -2.033441|    1.847084|    0.161363|           5|   -0.294474|  5.0000e+01|  5.0000e+01|  5.0000e+01|
|         156|  3.9761e-01|   -2.033430|    1.847079|    0.161365|           5|   -0.294486|  5.0000e+01|  5.0000e+01|  5.0000e+01|
|         157|  3.9941e-01|   -2.033495|    1.847077|    0.161364|           5|   -0.294465|  5.0000e+01|  5.0000e+01|  5.0000e+01|
|         158|  3.9898e-01|   -2.033443|    1.847062|    0.161358|           5|   -0.294496|  5.0000e+01|  5.0000e+01|  5.0000e+01|
|         159|  3.9858e-01|   -2.033555|    1.847071|    0.161366|           5|   -0.294505|  5.0000e+01|  5.0000e+01|  5.0000e+01|
|         160|  3.9899e-01|   -2.033524|    1.847068|    0.161365|           5|   -0.294618|  5.0000e+01|  5.0000e+01|  5.0000e+01|
|         161|  3.9981e-01|   -2.033691|    1.847078|    0.161373|           5|   -0.294623|  5.0000e+01|  5.0000e+01|  5.0000e+01|
|         162|  3.9944e-01|   -2.033373|    1.847158|    0.161414|           5|   -0.295179|  5.0000e+01|  5.0000e+01|  5.0000e+01|
|         163|  3.9908e-01|   -2.033308|    1.847178|    0.161417|           5|   -0.294626|  5.0000e+01|  5.0000e+01|  5.0000e+01|
|         164|  3.9873e-01|   -2.033262|    1.847162|    0.161404|           5|   -0.294940|  5.0000e+01|  5.0000e+01|  5.0000e+01|
|         165|  3.9837e-01|   -2.033789|    1.847157|    0.161399|           5|   -0.294673|  5.0000e+01|  5.0000e+01|  5.0000e+01|
|         166|  3.9941e-01|   -2.033831|    1.847161|    0.161402|           5|   -0.294880|  5.0000e+01|  5.0000e+01|  5.0000e+01|
|         167|  3.9903e-01|   -2.034209|    1.847142|    0.161391|           5|   -0.294726|  5.0000e+01|  5.0000e+01|  5.0000e+01|
|         168|  3.9868e-01|   -2.034250|    1.847177|    0.161420|           5|   -0.296344|  5.0000e+01|  5.0000e+01|  5.0000e+01|
|         169|  3.9835e-01|   -2.033771|    1.847151|    0.161413|           5|   -0.295502|  5.0000e+01|  5.0000e+01|  5.0000e+01|
|         170|  3.9972e-01|   -2.034843|    1.847182|    0.161416|           5|   -0.296229|  5.0000e+01|  5.0000e+01|  5.0000e+01|
|         171|  3.9947e-01|   -2.034063|    1.847274|    0.161493|           5|   -0.296092|  5.0000e+01|  5.0000e+01|  5.0000e+01|
|         172|  3.9913e-01|   -2.034653|    1.847266|    0.161517|           5|   -0.294647|  5.0000e+01|  5.0000e+01|  5.0000e+01|
|         173|  3.9879e-01|   -2.034676|    1.847244|    0.161539|           5|   -0.294714|  5.0000e+01|  5.0000e+01|  5.0000e+01|
|         174|  3.9848e-01|   -2.034814|    1.847261|    0.161556|           5|   -0.296383|  5.0000e+01|  5.0000e+01|  5.0000e+01|
|         175|  3.9814e-01|   -2.034771|    1.847329|    0.161602|           5|   -0.295399|  5.0000e+01|  5.0000e+01|  5.0000e+01|
|         176|  3.9950e-01|   -2.034657|    1.847355|    0.161617|           5|   -0.296647|  5.0000e+01|  5.0000e+01|  5.0000e+01|
|         177|  3.9915e-01|   -2.034502|    1.847363|    0.161613|           5|   -0.295334|  5.0000e+01|  5.0000e+01|  5.0000e+01|
|         178|  3.9882e-01|   -2.034533|    1.847361|    0.161628|           5|   -0.294585|  5.0000e+01|  5.0000e+01|  5.0000e+01|
|         179|  3.9849e-01|   -2.034543|    1.847360|    0.161626|           5|   -0.294439|  5.0000e+01|  5.0000e+01|  5.0000e+01|
|         180|  3.9817e-01|   -2.034515|    1.847362|    0.161628|           5|   -0.294449|  5.0000e+01|  5.0000e+01|  5.0000e+01|
|         181|  3.9785e-01|   -2.034531|    1.847357|    0.161622|           5|   -0.294907|  5.0000e+01|  5.0000e+01|  5.0000e+01|
|         182|  3.9880e-01|   -2.034640|    1.847393|    0.161638|           5|   -0.294578|  5.0000e+01|  5.0000e+01|  5.0000e+01|
|         183|  3.9882e-01|   -2.034501|    1.847406|    0.161642|           5|   -0.294492|  5.0000e+01|  5.0000e+01|  5.0000e+01|
|         184|  3.9850e-01|   -2.034439|    1.847521|    0.161705|           5|   -0.295839|  5.0000e+01|  5.0000e+01|  5.0000e+01|
|         185|  3.9818e-01|   -2.034595|    1.847518|    0.161700|           5|   -0.294521|  5.0000e+01|  5.0000e+01|  5.0000e+01|
|         186|  3.9787e-01|   -2.034665|    1.847525|    0.161685|           5|   -0.294787|  5.0000e+01|  5.0000e+01|  5.0000e+01|
|         187|  3.9948e-01|   -2.034612|    1.847595|    0.161741|           5|   -0.295886|  5.0000e+01|  5.0000e+01|  5.0000e+01|
|         188|  3.9939e-01|   -2.034471|    1.847606|    0.161753|           5|   -0.294540|  5.0000e+01|  5.0000e+01|  5.0000e+01|
|         189|  3.9904e-01|   -2.034450|    1.847605|    0.161751|           5|   -0.294547|  5.0000e+01|  5.0000e+01|  5.0000e+01|
|         190|  3.9873e-01|   -2.034434|    1.847601|    0.161756|           5|   -0.294480|  5.0000e+01|  5.0000e+01|  5.0000e+01|
|         191|  3.9842e-01|   -2.034497|    1.847603|    0.161760|           5|   -0.294397|  5.0000e+01|  5.0000e+01|  5.0000e+01|
|         192|  4.0024e-01|   -2.034458|    1.847611|    0.161764|           5|   -0.294479|  5.0000e+01|  5.0000e+01|  5.0000e+01|
|         193|  3.9986e-01|   -2.034461|    1.847602|    0.161760|           5|   -0.294427|  5.0000e+01|  5.0000e+01|  5.0000e+01|
|         194|  3.9953e-01|   -2.034495|    1.847646|    0.161779|           5|   -0.294496|  5.0000e+01|  5.0000e+01|  5.0000e+01|
|         195|  3.9922e-01|   -2.034383|    1.847691|    0.161810|           5|   -0.294521|  5.0000e+01|  5.0000e+01|  5.0000e+01|
|         196|  3.9936e-01|   -2.034230|    1.847715|    0.161835|           5|   -0.294639|  5.0000e+01|  5.0000e+01|  5.0000e+01|
|         197|  4.0078e-01|   -2.034317|    1.847714|    0.161832|           5|   -0.294347|  5.0000e+01|  5.0000e+01|  5.0000e+01|
|         198|  4.0044e-01|   -2.034290|    1.847709|    0.161840|           5|   -0.294563|  5.0000e+01|  5.0000e+01|  5.0000e+01|
|         199|  4.0012e-01|   -2.034412|    1.847737|    0.161848|           5|   -0.294520|  5.0000e+01|  5.0000e+01|  5.0000e+01|
|         200|  3.9980e-01|   -2.034571|    1.847739|    0.161842|           5|   -0.294342|  5.0000e+01|  5.0000e+01|  5.0000e+01|
|         201|  4.0097e-01|   -2.034590|    1.847943|    0.161952|           5|   -0.295002|  5.0000e+01|  5.0000e+01|  5.0000e+01|
|         202|  4.0121e-01|   -2.034365|    1.847964|    0.161966|           5|   -0.294431|  5.0000e+01|  5.0000e+01|  5.0000e+01|
|         203|  4.0088e-01|   -2.034373|    1.847959|    0.161962|           5|   -0.294342|  5.0000e+01|  5.0000e+01|  5.0000e+01|
|         204|  4.0057e-01|   -2.034403|    1.847962|    0.161963|           5|   -0.294352|  5.0000e+01|  5.0000e+01|  5.0000e+01|
|         205|  4.0024e-01|   -2.034350|    1.847960|    0.161964|           5|   -0.294404|  5.0000e+01|  5.0000e+01|  5.0000e+01|
|         206|  4.0150e-01|   -2.034523|    1.847962|    0.161963|           5|   -0.294330|  5.0000e+01|  5.0000e+01|  5.0000e+01|
|         207|  4.0119e-01|   -2.034521|    1.847961|    0.161962|           5|   -0.294339|  5.0000e+01|  5.0000e+01|  5.0000e+01|
|         208|  4.0089e-01|   -2.034530|    1.847996|    0.161998|           5|   -0.294868|  5.0000e+01|  5.0000e+01|  5.0000e+01|
|         209|  4.0059e-01|   -2.034737|    1.848002|    0.162003|           5|   -0.294389|  5.0000e+01|  5.0000e+01|  5.0000e+01|
|         210|  4.0156e-01|   -2.034665|    1.847999|    0.162001|           5|   -0.294552|  5.0000e+01|  5.0000e+01|  5.0000e+01|
|         211|  4.0125e-01|   -2.034700|    1.848028|    0.162017|           5|   -0.294639|  5.0000e+01|  5.0000e+01|  5.0000e+01|
|         212|  4.0095e-01|   -2.034591|    1.848035|    0.162023|           5|   -0.294548|  5.0000e+01|  5.0000e+01|  5.0000e+01|
|         213|  4.0066e-01|   -2.034602|    1.848036|    0.162023|           5|   -0.294376|  5.0000e+01|  5.0000e+01|  5.0000e+01|
|         214|  4.0086e-01|   -2.034615|    1.848084|    0.162050|           5|   -0.294672|  5.0000e+01|  5.0000e+01|  5.0000e+01|
|         215|  4.0153e-01|   -2.034535|    1.848077|    0.162047|           5|   -0.294894|  5.0000e+01|  5.0000e+01|  5.0000e+01|
|         216|  4.0124e-01|   -2.034805|    1.848127|    0.162070|           5|   -0.294698|  5.0000e+01|  5.0000e+01|  5.0000e+01|
|         217|  4.0095e-01|   -2.034962|    1.848129|    0.162073|           5|   -0.294522|  5.0000e+01|  5.0000e+01|  5.0000e+01|
|         218|  4.0068e-01|   -2.035194|    1.848132|    0.162075|           5|   -0.294556|  5.0000e+01|  5.0000e+01|  5.0000e+01|
|         219|  4.0041e-01|   -2.035183|    1.848138|    0.162080|           5|   -0.294437|  5.0000e+01|  5.0000e+01|  5.0000e+01|
|         220|  4.0013e-01|   -2.035196|    1.848139|    0.162081|           5|   -0.294356|  5.0000e+01|  5.0000e+01|  5.0000e+01|
|         221|  4.0122e-01|   -2.035217|    1.848146|    0.162085|           5|   -0.294323|  5.0000e+01|  5.0000e+01|  5.0000e+01|
|         222|  4.0092e-01|   -2.035197|    1.848146|    0.162084|           5|   -0.294288|  5.0000e+01|  5.0000e+01|  5.0000e+01|
|         223|  4.0066e-01|   -2.035178|    1.848146|    0.162084|           5|   -0.294290|  5.0000e+01|  5.0000e+01|  5.0000e+01|
|         224|  4.0039e-01|   -2.035167|    1.848157|    0.162086|           5|   -0.294338|  5.0000e+01|  5.0000e+01|  5.0000e+01|
|         225|  4.0102e-01|   -2.035111|    1.848166|    0.162091|           5|   -0.294333|  5.0000e+01|  5.0000e+01|  5.0000e+01|
|         226|  4.0105e-01|   -2.035139|    1.848161|    0.162088|           5|   -0.294348|  5.0000e+01|  5.0000e+01|  5.0000e+01|
|         227|  4.0078e-01|   -2.035190|    1.848166|    0.162090|           5|   -0.294331|  5.0000e+01|  5.0000e+01|  5.0000e+01|
|         228|  4.0052e-01|   -2.035194|    1.848163|    0.162090|           5|   -0.294364|  5.0000e+01|  5.0000e+01|  5.0000e+01|
|         229|  4.0026e-01|   -2.035248|    1.848163|    0.162089|           5|   -0.294304|  5.0000e+01|  5.0000e+01|  5.0000e+01|
|         230|  4.0118e-01|   -2.035262|    1.848178|    0.162097|           5|   -0.294359|  5.0000e+01|  5.0000e+01|  5.0000e+01|
|         231|  4.0091e-01|   -2.035244|    1.848179|    0.162100|           5|   -0.294327|  5.0000e+01|  5.0000e+01|  5.0000e+01|
|         232|  4.0066e-01|   -2.035217|    1.848183|    0.162102|           5|   -0.294326|  5.0000e+01|  5.0000e+01|  5.0000e+01|
|         233|  4.0040e-01|   -2.035214|    1.848186|    0.162104|           5|   -0.294300|  5.0000e+01|  5.0000e+01|  5.0000e+01|
|         234|  4.0015e-01|   -2.035199|    1.848185|    0.162104|           5|   -0.294292|  5.0000e+01|  5.0000e+01|  5.0000e+01|
|         235|  3.9992e-01|   -2.035198|    1.848187|    0.162105|           5|   -0.294301|  5.0000e+01|  5.0000e+01|  5.0000e+01|
|         236|  4.0101e-01|   -2.035212|    1.848187|    0.162106|           5|   -0.294303|  5.0000e+01|  5.0000e+01|  5.0000e+01|
|         237|  4.0075e-01|   -2.035175|    1.848187|    0.162106|           5|   -0.294295|  5.0000e+01|  5.0000e+01|  5.0000e+01|
|         238|  4.0050e-01|   -2.035179|    1.848186|    0.162105|           5|   -0.294299|  5.0000e+01|  5.0000e+01|  5.0000e+01|
|         239|  4.0024e-01|   -2.035174|    1.848187|    0.162107|           5|   -0.294305|  5.0000e+01|  5.0000e+01|  5.0000e+01|
|         240|  4.0089e-01|   -2.035176|    1.848186|    0.162106|           5|   -0.294295|  5.0000e+01|  5.0000e+01|  5.0000e+01|
|         241|  4.0078e-01|   -2.035162|    1.848187|    0.162106|           5|   -0.294330|  5.0000e+01|  5.0000e+01|  5.0000e+01|
|         242|  4.0054e-01|   -2.035180|    1.848196|    0.162112|           5|   -0.294329|  5.0000e+01|  5.0000e+01|  5.0000e+01|
|         243|  4.0030e-01|   -2.035210|    1.848196|    0.162111|           5|   -0.294304|  5.0000e+01|  5.0000e+01|  5.0000e+01|
|         244|  4.0005e-01|   -2.035232|    1.848194|    0.162110|           5|   -0.294302|  5.0000e+01|  5.0000e+01|  5.0000e+01|
|         245|  4.0058e-01|   -2.035231|    1.848195|    0.162113|           5|   -0.294297|  5.0000e+01|  5.0000e+01|  5.0000e+01|
|         246|  4.0056e-01|   -2.035249|    1.848194|    0.162111|           5|   -0.294388|  5.0000e+01|  5.0000e+01|  5.0000e+01|
|         247|  4.0032e-01|   -2.035233|    1.848193|    0.162110|           5|   -0.294332|  5.0000e+01|  5.0000e+01|  5.0000e+01|
|         248|  4.0008e-01|   -2.035244|    1.848213|    0.162123|           5|   -0.294508|  5.0000e+01|  5.0000e+01|  5.0000e+01|
|         249|  3.9984e-01|   -2.035415|    1.848218|    0.162122|           5|   -0.294328|  5.0000e+01|  5.0000e+01|  5.0000e+01|
|         250|  3.9962e-01|   -2.035401|    1.848218|    0.162121|           5|   -0.294345|  5.0000e+01|  5.0000e+01|  5.0000e+01|
|         251|  4.0036e-01|   -2.035387|    1.848219|    0.162122|           5|   -0.294295|  5.0000e+01|  5.0000e+01|  5.0000e+01|
|         252|  4.0012e-01|   -2.035398|    1.848246|    0.162143|           5|   -0.294441|  5.0000e+01|  5.0000e+01|  5.0000e+01|
|         253|  3.9989e-01|   -2.035367|    1.848245|    0.162142|           5|   -0.294291|  5.0000e+01|  5.0000e+01|  5.0000e+01|
|         254|  3.9966e-01|   -2.035375|    1.848245|    0.162143|           5|   -0.294287|  5.0000e+01|  5.0000e+01|  5.0000e+01|
|         255|  3.9943e-01|   -2.035371|    1.848248|    0.162145|           5|   -0.294292|  5.0000e+01|  5.0000e+01|  5.0000e+01|
|         256|  3.9991e-01|   -2.035397|    1.848249|    0.162147|           5|   -0.294329|  5.0000e+01|  5.0000e+01|  5.0000e+01|
|         257|  4.0024e-01|   -2.035409|    1.848251|    0.162147|           5|   -0.294314|  5.0000e+01|  5.0000e+01|  5.0000e+01|
|         258|  4.0000e-01|   -2.035375|    1.848253|    0.162148|           5|   -0.294295|  5.0000e+01|  5.0000e+01|  5.0000e+01|
|         259|  3.9976e-01|   -2.035391|    1.848252|    0.162148|           5|   -0.294283|  5.0000e+01|  5.0000e+01|  5.0000e+01|
|         260|  3.9954e-01|   -2.035452|    1.848253|    0.162148|           5|   -0.294279|  5.0000e+01|  5.0000e+01|  5.0000e+01|
|         261|  4.0034e-01|   -2.035454|    1.848251|    0.162146|           5|   -0.294286|  5.0000e+01|  5.0000e+01|  5.0000e+01|
|         262|  4.0010e-01|   -2.035460|    1.848252|    0.162147|           5|   -0.294273|  5.0000e+01|  5.0000e+01|  5.0000e+01|
|         263|  3.9987e-01|   -2.035448|    1.848252|    0.162147|           5|   -0.294334|  5.0000e+01|  5.0000e+01|  5.0000e+01|
|         264|  3.9965e-01|   -2.035469|    1.848267|    0.162158|           5|   -0.294320|  5.0000e+01|  5.0000e+01|  5.0000e+01|
|         265|  3.9944e-01|   -2.035486|    1.848271|    0.162161|           5|   -0.294277|  5.0000e+01|  5.0000e+01|  5.0000e+01|
|         266|  4.0018e-01|   -2.035485|    1.848272|    0.162161|           5|   -0.294267|  5.0000e+01|  5.0000e+01|  5.0000e+01|
|         267|  4.0014e-01|   -2.035490|    1.848274|    0.162161|           5|   -0.294332|  5.0000e+01|  5.0000e+01|  5.0000e+01|
|         268|  3.9991e-01|   -2.035491|    1.848274|    0.162162|           5|   -0.294300|  5.0000e+01|  5.0000e+01|  5.0000e+01|
|         269|  3.9968e-01|   -2.035491|    1.848270|    0.162156|           5|   -0.294292|  5.0000e+01|  5.0000e+01|  5.0000e+01|
|         270|  3.9983e-01|   -2.035471|    1.848270|    0.162156|           5|   -0.294283|  5.0000e+01|  5.0000e+01|  5.0000e+01|
|         271|  4.0009e-01|   -2.035466|    1.848268|    0.162153|           5|   -0.294292|  5.0000e+01|  5.0000e+01|  5.0000e+01|
|         272|  3.9987e-01|   -2.035448|    1.848270|    0.162156|           5|   -0.294350|  5.0000e+01|  5.0000e+01|  5.0000e+01|
|         273|  3.9965e-01|   -2.035450|    1.848270|    0.162154|           5|   -0.294297|  5.0000e+01|  5.0000e+01|  5.0000e+01|
|         274|  3.9944e-01|   -2.035434|    1.848270|    0.162153|           5|   -0.294296|  5.0000e+01|  5.0000e+01|  5.0000e+01|
|         275|  3.9923e-01|   -2.035444|    1.848273|    0.162155|           5|   -0.294297|  5.0000e+01|  5.0000e+01|  5.0000e+01|
|         276|  3.9986e-01|   -2.035444|    1.848273|    0.162155|           5|   -0.294274|  5.0000e+01|  5.0000e+01|  5.0000e+01|
|         277|  3.9963e-01|   -2.035445|    1.848275|    0.162156|           5|   -0.294284|  5.0000e+01|  5.0000e+01|  5.0000e+01|
|         278|  3.9942e-01|   -2.035475|    1.848275|    0.162155|           5|   -0.294276|  5.0000e+01|  5.0000e+01|  5.0000e+01|
|         279|  3.9920e-01|   -2.035428|    1.848274|    0.162154|           5|   -0.294281|  5.0000e+01|  5.0000e+01|  5.0000e+01|
|         280|  3.9900e-01|   -2.035445|    1.848274|    0.162154|           5|   -0.294275|  5.0000e+01|  5.0000e+01|  5.0000e+01|
|         281|  3.9927e-01|   -2.035440|    1.848273|    0.162153|           5|   -0.294331|  5.0000e+01|  5.0000e+01|  5.0000e+01|
|         282|  3.9958e-01|   -2.035476|    1.848279|    0.162156|           5|   -0.294313|  5.0000e+01|  5.0000e+01|  5.0000e+01|
|         283|  3.9938e-01|   -2.035458|    1.848288|    0.162162|           5|   -0.294325|  5.0000e+01|  5.0000e+01|  5.0000e+01|
|         284|  3.9918e-01|   -2.035399|    1.848289|    0.162162|           5|   -0.294280|  5.0000e+01|  5.0000e+01|  5.0000e+01|
|         285|  3.9898e-01|   -2.035424|    1.848291|    0.162163|           5|   -0.294276|  5.0000e+01|  5.0000e+01|  5.0000e+01|
|         286|  3.9877e-01|   -2.035450|    1.848289|    0.162162|           5|   -0.294276|  5.0000e+01|  5.0000e+01|  5.0000e+01|
|         287|  3.9963e-01|   -2.035435|    1.848287|    0.162160|           5|   -0.294296|  5.0000e+01|  5.0000e+01|  5.0000e+01|
|         288|  3.9940e-01|   -2.035435|    1.848310|    0.162174|           5|   -0.294330|  5.0000e+01|  5.0000e+01|  5.0000e+01|
|         289|  3.9918e-01|   -2.035421|    1.848311|    0.162175|           5|   -0.294296|  5.0000e+01|  5.0000e+01|  5.0000e+01|
|         290|  3.9898e-01|   -2.035408|    1.848316|    0.162179|           5|   -0.294320|  5.0000e+01|  5.0000e+01|  5.0000e+01|
|         291|  3.9923e-01|   -2.035436|    1.848316|    0.162179|           5|   -0.294275|  5.0000e+01|  5.0000e+01|  5.0000e+01|
|         292|  3.9951e-01|   -2.035424|    1.848317|    0.162179|           5|   -0.294276|  5.0000e+01|  5.0000e+01|  5.0000e+01|
|         293|  3.9930e-01|   -2.035435|    1.848317|    0.162180|           5|   -0.294273|  5.0000e+01|  5.0000e+01|  5.0000e+01|
|         294|  3.9910e-01|   -2.035442|    1.848318|    0.162181|           5|   -0.294273|  5.0000e+01|  5.0000e+01|  5.0000e+01|
|         295|  3.9890e-01|   -2.035458|    1.848322|    0.162182|           5|   -0.294318|  5.0000e+01|  5.0000e+01|  5.0000e+01|
|         296|  3.9964e-01|   -2.035458|    1.848323|    0.162184|           5|   -0.294278|  5.0000e+01|  5.0000e+01|  5.0000e+01|
|         297|  3.9943e-01|   -2.035446|    1.848322|    0.162184|           5|   -0.294299|  5.0000e+01|  5.0000e+01|  5.0000e+01|
|         298|  3.9925e-01|   -2.035442|    1.848325|    0.162185|           5|   -0.294275|  5.0000e+01|  5.0000e+01|  5.0000e+01|
|         299|  3.9908e-01|   -2.035449|    1.848324|    0.162185|           5|   -0.294293|  5.0000e+01|  5.0000e+01|  5.0000e+01|

----------------------------- Solver Exit -------------------------------

Maximum number of iterations reached (ITER = 300) before convergence.
+-----------------------------------------------------------------------+
|      Convergence Field     |     Value    |   Criterion  |  Converged |
+-----------------------------------------------------------------------+
|                  Cauchy[CL]|   3.73178e-06|       < 1e-06|          No|
+-----------------------------------------------------------------------+
-------------------------------------------------------------------------
+-----------------------------------------------------------------------+
|        File Writing Summary       |              Filename             |
+-----------------------------------------------------------------------+
|SU2 binary restart                 |restart_flow.dat                   |

Writing the forces breakdown file (forces_breakdown.dat).
|Paraview                           |flow.vtu                           |

Writing the forces breakdown file (forces_breakdown.dat).
|Paraview surface                   |surface_flow.vtu                   |

Writing the forces breakdown file (forces_breakdown.dat).
+-----------------------------------------------------------------------+
Warning: there are 4 non-physical points in the solution.
Warning: 8 reconstructed states for upwinding are non-physical.

--------------------------- Finalizing Solver ---------------------------
Deleted CNumerics container.
Deleted CIntegration container.
Deleted CSolver container.
Deleted CIteration container.
Deleted CInterface container.
Deleted CGeometry container.
Deleted CFreeFormDefBox class.
Deleted CSurfaceMovement class.
Deleted CVolumetricMovement class.
Deleted CConfig container.
Deleted nInst container.
Deleted COutput class.
-------------------------------------------------------------------------

------------------------- Exit Success (SU2_CFD) ------------------------

