
-------------------------------------------------------------------------
|    ___ _   _ ___                                                      |
|   / __| | | |_  )   Release 8.0.0 "Harrier"                           |
|   \__ \ |_| |/ /                                                      |
|   |___/\___//___|   Suite (Computational Fluid Dynamics Code)         |
|                                                                       |
-------------------------------------------------------------------------
| SU2 Project Website: https://su2code.github.io                        |
|                                                                       |
| The SU2 Project is maintained by the SU2 Foundation                   |
| (http://su2foundation.org)                                            |
-------------------------------------------------------------------------
| Copyright 2012-2023, SU2 Contributors                                 |
|                                                                       |
| SU2 is free software; you can redistribute it and/or                  |
| modify it under the terms of the GNU Lesser General Public            |
| License as published by the Free Software Foundation; either          |
| version 2.1 of the License, or (at your option) any later version.    |
|                                                                       |
| SU2 is distributed in the hope that it will be useful,                |
| but WITHOUT ANY WARRANTY; without even the implied warranty of        |
| MERCHANTABILITY or FITNESS FOR A PARTICULAR PURPOSE. See the GNU      |
| Lesser General Public License for more details.                       |
|                                                                       |
| You should have received a copy of the GNU Lesser General Public      |
| License along with SU2. If not, see <http://www.gnu.org/licenses/>.   |
-------------------------------------------------------------------------

Parsing config file for zone 0

----------------- Physical Case Definition ( Zone 0 ) -------------------
Compressible RANS equations.
Turbulence model: Spalart-Allmaras-noft2
Hybrid RANS/LES: No Hybrid RANS/LES
Mach number: 0.734.
Angle of attack (AoA): 2.31 deg, and angle of sideslip (AoS): 0 deg.
Reynolds number: 6.5e+06. Reference length 1.
Fixed CL mode, target value: 0.824.
Reading and writing binary SU2 native restart files.
Read flow solution from: solution_flow.dat.
Dimensional simulation.
The reference area is 1 m^2.
The semi-span will be computed using the max y(3D) value.
The reference length is 1 m.
Reference origin for moment evaluation is (0.25, 0, 0).
Surface(s) where the force coefficients are evaluated: AIRFOIL.

Surface(s) plotted in the output file: AIRFOIL.
Surface(s) affected by the design variables: AIRFOIL.
Input mesh file name: mesh_RAE2822_turb_deform.su2

--------------- Space Numerical Integration ( Zone 0 ) ------------------
Jameson-Schmidt-Turkel scheme (2nd order in space) for the flow inviscid terms.
JST viscous coefficients (2nd & 4th): 0.5, 0.02.
The method includes a grid stretching correction (p = 0.3).
Scalar upwind solver for the turbulence model.
First order integration in space.
Average of gradients with correction (viscous flow terms).
Average of gradients with correction (viscous turbulence terms).
Gradient for viscous and source terms: inverse-distance weighted Least-Squares.

--------------- Time Numerical Integration  ( Zone 0 ) ------------------
Local time stepping (steady state simulation).
Euler implicit method for the flow equations.
FGMRES is used for solving the linear system.
Using a ILU(0) preconditioning.
Convergence criteria of the linear solver: 1e-06.
Max number of linear iterations: 10.
No CFL adaptation.
Courant-Friedrichs-Lewy number:       10
Euler implicit time integration for the turbulence model.

------------------ Convergence Criteria  ( Zone 0 ) ---------------------
Maximum number of solver subiterations: 5500.
Begin convergence monitoring at iteration 10.
Residual minimum value: 1e-12.
Cauchy series min. value: 1e-06.
Number of Cauchy elements: 100.
Begin windowed time average at iteration 0.

-------------------- Output Information ( Zone 0 ) ----------------------
File writing frequency: 
+------------------------------------+
|                     File| Frequency|
+------------------------------------+
|                  RESTART|     10000|
|                 PARAVIEW|     10000|
|         SURFACE_PARAVIEW|     10000|
|              SURFACE_CSV|     10000|
+------------------------------------+
Writing the convergence history file every 1 inner iterations.
Writing the screen convergence history every 1 inner iterations.
The tabular file format is CSV (.csv).
Convergence history file name: history_direct.
Forces breakdown file name: forces_breakdown.dat.
Surface file name: surface_flow.
Volume file name: flow.
Restart file name: restart_flow.dat.

------------- Config File Boundary Information ( Zone 0 ) ---------------
+-----------------------------------------------------------------------+
|                        Marker Type|                        Marker Name|
+-----------------------------------------------------------------------+
|                          Far-field|                           FARFIELD|
+-----------------------------------------------------------------------+
|                     Heat flux wall|                            AIRFOIL|
+-----------------------------------------------------------------------+

-------------------- Output Preprocessing ( Zone 0 ) --------------------

WARNING: SURFACE_PRESSURE_DROP can only be computed for at least 2 surfaces (outlet, inlet, ...)

Screen output fields: INNER_ITER, RMS_DENSITY, RMS_NU_TILDE, LIFT, DRAG
History output group(s): ITER, RMS_RES, AERO_COEFF
Convergence field(s): RMS_DENSITY
Warning: No (valid) fields chosen for time convergence monitoring. Time convergence monitoring inactive.
Volume output fields: COORDINATES, SOLUTION, PRIMITIVE

------------------- Geometry Preprocessing ( Zone 0 ) -------------------
Two dimensional problem.
13937 grid points before partitioning.
22842 volume elements before partitioning.
2 surface markers.
192 boundary elements in index 0 (Marker = AIRFOIL).
40 boundary elements in index 1 (Marker = FARFIELD).
Executing the partitioning functions.
Building the graph adjacency structure.
Calling ParMETIS... graph partitioning complete (831 edge cuts).
Distributing ParMETIS coloring.
Rebalancing vertices.
Rebalancing volume element connectivity.
Rebalancing markers and surface elements.
14875 vertices including ghost points. 
23674 interior elements including halo cells. 
18780 triangles.
4894 quadrilaterals.
Establishing MPI communication patterns.
Setting point connectivity.
Renumbering points (Reverse Cuthill McKee Ordering).
Recomputing point connectivity.
Setting element connectivity.
Checking the numerical grid orientation.
All volume elements are correctly orientend.
All surface elements are correctly orientend.
Identifying edges and vertices.
Setting the control volume structure.
Area of the computational grid: 32209.9.
Searching for the closest normal neighbors to the surfaces.
Storing a mapping from global to local point index.
Compute the surface curvature.
Max K: 162.334. Mean K: 7.43946. Standard deviation K: 22.1698.
Checking for periodicity.
Computing mesh quality statistics for the dual control volumes.
+--------------------------------------------------------------+
|           Mesh Quality Metric|        Minimum|        Maximum|
+--------------------------------------------------------------+
|    Orthogonality Angle (deg.)|        75.2884|        89.9994|
|     CV Face Area Aspect Ratio|        1.00111|        3358.44|
|           CV Sub-Volume Ratio|        1.00065|        1212.88|
+--------------------------------------------------------------+
Finding max control volume width.
Communicating number of neighbors.
Wetted area = 2.02275 m.
Area projection in the x-plane = 0.124469 m, y-plane = 0.995873 m.
Max. coordinate in the x-direction = 1 m, y-direction = 0.0630935 m.
Min. coordinate in the x-direction = 0 m, y-direction = -0.0595857 m.
Computing wall distances.

-------------------- Solver Preprocessing ( Zone 0 ) --------------------
WARNING: AoA in the solution file (2.78558 deg.) +
         AoA offset in mesh file (0 deg.) = 2.78558 deg.
WARNING: SU2 will use the dCD/dCL provided in the direct solution file: 0.0198939.
WARNING: SU2 will use the dCMz/dCL provided in the direct solution file: 0.00758774.
Viscous flow: Computing pressure using the ideal gas law
based on the free-stream temperature and a density computed
from the Reynolds number.
Force coefficients computed using free-stream values.

-- Models:
+------------------------------------------------------------------------------+
|          Viscosity Model|        Conductivity Model|              Fluid Model|
+------------------------------------------------------------------------------+
|               SUTHERLAND|          CONSTANT_PRANDTL|             STANDARD_AIR|
+------------------------------------------------------------------------------+
-- Fluid properties:
+------------------------------------------------------------------------------+
|                  Name|    Dim. value|    Ref. value|      Unit|Non-dim. value|
+------------------------------------------------------------------------------+
|        Ref. Viscosity|     1.716e-05|             1|   N.s/m^2|     1.716e-05|
|      Sutherland Temp.|        273.15|             1|         K|        273.15|
|     Sutherland Const.|         110.4|             1|         K|         110.4|
+------------------------------------------------------------------------------+
|        Prandtl (Lam.)|             -|             -|         -|          0.71|
|       Prandtl (Turb.)|             -|             -|         -|           0.9|
+------------------------------------------------------------------------------+
|          Gas Constant|       287.058|             1|  N.m/kg.K|       287.058|
|      Spec. Heat Ratio|             -|             -|         -|           1.4|
+------------------------------------------------------------------------------+
-- Initial and free-stream conditions:
+------------------------------------------------------------------------------+
|                  Name|    Dim. value|    Ref. value|      Unit|Non-dim. value|
+------------------------------------------------------------------------------+
|       Static Pressure|         38515|             1|        Pa|         38515|
|               Density|      0.465631|             1|    kg/m^3|      0.465631|
|           Temperature|        288.15|             1|         K|        288.15|
|          Total Energy|        237984|             1|   m^2/s^2|        237984|
|            Velocity-X|       249.483|             1|       m/s|       249.483|
|            Velocity-Y|       12.1388|             1|       m/s|       12.1388|
|    Velocity Magnitude|       249.778|             1|       m/s|       249.778|
+------------------------------------------------------------------------------+
|             Viscosity|    1.7893e-05|             1|   N.s/m^2|    1.7893e-05|
|          Conductivity|             -|             1|   W/m^2.K|             -|
|     Turb. Kin. Energy|       233.959|             1|   m^2/s^2|       233.959|
|     Spec. Dissipation|        608834|             1|       1/s|        608834|
+------------------------------------------------------------------------------+
|           Mach Number|             -|             -|         -|         0.734|
|       Reynolds Number|             -|             -|         -|       6.5e+06|
+------------------------------------------------------------------------------+
Initialize Jacobian structure (Navier-Stokes). MG level: 0.
Initialize Jacobian structure (SA model).

------------------- Numerics Preprocessing ( Zone 0 ) -------------------

----------------- Integration Preprocessing ( Zone 0 ) ------------------

------------------- Iteration Preprocessing ( Zone 0 ) ------------------
Euler/Navier-Stokes/RANS fluid iteration.

------------------------------ Begin Solver -----------------------------

Simulation Run using the Single-zone Driver
WARNING: SU2 was not compiled for an AVX-capable architecture. Performance could be better,
         see https://su2code.github.io/docs_v7/Build-SU2-Linux-MacOS/#compiler-optimizations
+----------------------------------------------------------------+
|  Inner_Iter|    rms[Rho]|     rms[nu]|          CL|          CD|
+----------------------------------------------------------------+
|           0|   -4.621999|   -5.825835|    0.823868|    0.012170|
|           1|   -4.677858|   -5.921770|    0.823799|    0.012173|
|           2|   -4.738862|   -6.032045|    0.823780|    0.012176|
|           3|   -4.790134|   -6.154204|    0.823793|    0.012179|
|           4|   -4.831081|   -6.285976|    0.823821|    0.012182|
|           5|   -4.860702|   -6.414252|    0.823847|    0.012183|
|           6|   -4.878294|   -6.500525|    0.823865|    0.012183|
|           7|   -4.885830|   -6.511111|    0.823870|    0.012180|
|           8|   -4.886220|   -6.477038|    0.823865|    0.012176|
|           9|   -4.881115|   -6.442794|    0.823853|    0.012169|
|          10|   -4.871179|   -6.424971|    0.823837|    0.012161|
|          11|   -4.857493|   -6.424091|    0.823820|    0.012151|
|          12|   -4.842029|   -6.434445|    0.823803|    0.012141|
|          13|   -4.827018|   -6.446663|    0.823788|    0.012129|
|          14|   -4.814155|   -6.449394|    0.823778|    0.012117|
|          15|   -4.804256|   -6.434351|    0.823772|    0.012106|
|          16|   -4.797314|   -6.402234|    0.823774|    0.012094|
|          17|   -4.792737|   -6.361561|    0.823781|    0.012084|
|          18|   -4.789654|   -6.321901|    0.823795|    0.012074|
|          19|   -4.787213|   -6.289695|    0.823815|    0.012066|
|          20|   -4.784827|   -6.268078|    0.823839|    0.012058|
|          21|   -4.782299|   -6.257920|    0.823865|    0.012052|
|          22|   -4.779791|   -6.258629|    0.823893|    0.012047|
|          23|   -4.777666|   -6.268515|    0.823921|    0.012042|
|          24|   -4.776304|   -6.284860|    0.823946|    0.012039|
|          25|   -4.775956|   -6.304001|    0.823969|    0.012036|
|          26|   -4.776679|   -6.321786|    0.823988|    0.012034|
|          27|   -4.778340|   -6.334624|    0.824003|    0.012032|
|          28|   -4.780669|   -6.340811|    0.824014|    0.012030|
|          29|   -4.783336|   -6.341127|    0.824021|    0.012028|
|          30|   -4.786024|   -6.338152|    0.824025|    0.012026|
|          31|   -4.788486|   -6.334914|    0.824026|    0.012025|
|          32|   -4.790584|   -6.333873|    0.824026|    0.012023|
|          33|   -4.792288|   -6.336555|    0.824025|    0.012021|
|          34|   -4.793659|   -6.343604|    0.824024|    0.012019|
|          35|   -4.794812|   -6.354969|    0.824024|    0.012017|
|          36|   -4.795875|   -6.370076|    0.824025|    0.012014|
|          37|   -4.796960|   -6.387969|    0.824029|    0.012012|
|          38|   -4.798144|   -6.407429|    0.824035|    0.012009|
|          39|   -4.799464|   -6.427119|    0.824043|    0.012007|
|          40|   -4.800923|   -6.445742|    0.824054|    0.012004|
|          41|   -4.802503|   -6.462224|    0.824068|    0.012001|
|          42|   -4.804176|   -6.475861|    0.824085|    0.011999|
|          43|   -4.805915|   -6.486375|    0.824104|    0.011996|
|          44|   -4.807695|   -6.493881|    0.824125|    0.011994|
|          45|   -4.809492|   -6.498761|    0.824147|    0.011992|
|          46|   -4.811286|   -6.501536|    0.824172|    0.011990|
|          47|   -4.813052|   -6.502744|    0.824197|    0.011989|
|          48|   -4.814761|   -6.502879|    0.824223|    0.011988|
|          49|   -4.816377|   -6.502362|    0.824250|    0.011988|
|          50|   -4.817862|   -6.501539|    0.824277|    0.011988|
|          51|   -4.819178|   -6.500684|    0.824304|    0.011988|
|          52|   -4.820297|   -6.500010|    0.824330|    0.011990|
|          53|   -4.821197|   -6.499669|    0.824355|    0.011991|
|          54|   -4.821871|   -6.499770|    0.824379|    0.011993|
|          55|   -4.822326|   -6.500377|    0.824402|    0.011996|
|          56|   -4.822578|   -6.501522|    0.824424|    0.011999|
|          57|   -4.822652|   -6.503213|    0.824444|    0.012003|
|          58|   -4.822572|   -6.505442|    0.824463|    0.012006|
|          59|   -4.822364|   -6.508198|    0.824480|    0.012011|
|          60|   -4.822047|   -6.511462|    0.824496|    0.012015|
|          61|   -4.821636|   -6.515218|    0.824510|    0.012020|
|          62|   -4.821139|   -6.519441|    0.824523|    0.012025|
|          63|   -4.820567|   -6.524101|    0.824534|    0.012030|
|          64|   -4.819927|   -6.529158|    0.824544|    0.012035|
|          65|   -4.819234|   -6.534558|    0.824553|    0.012040|
|          66|   -4.818502|   -6.540231|    0.824561|    0.012046|
|          67|   -4.817753|   -6.546098|    0.824568|    0.012051|
|          68|   -4.817011|   -6.552067|    0.824574|    0.012057|
|          69|   -4.816299|   -6.558045|    0.824579|    0.012062|
|          70|   -4.815639|   -6.563946|    0.824584|    0.012068|
|          71|   -4.815051|   -6.569693|    0.824587|    0.012074|
|          72|   -4.814546|   -6.575227|    0.824591|    0.012079|
|          73|   -4.814133|   -6.580506|    0.824593|    0.012085|
|          74|   -4.813814|   -6.585508|    0.824595|    0.012090|
|          75|   -4.813587|   -6.590223|    0.824596|    0.012096|
|          76|   -4.813449|   -6.594659|    0.824597|    0.012101|
|          77|   -4.813391|   -6.598827|    0.824598|    0.012106|
|          78|   -4.813409|   -6.602745|    0.824598|    0.012112|
|          79|   -4.813494|   -6.606434|    0.824598|    0.012117|
|          80|   -4.813639|   -6.609917|    0.824598|    0.012122|
|          81|   -4.813835|   -6.613218|    0.824598|    0.012127|
|          82|   -4.814073|   -6.616361|    0.824597|    0.012131|
|          83|   -4.814338|   -6.619374|    0.824597|    0.012136|
|          84|   -4.814617|   -6.622291|    0.824597|    0.012141|
|          85|   -4.814889|   -6.625145|    0.824596|    0.012145|
|          86|   -4.815136|   -6.627974|    0.824596|    0.012150|
|          87|   -4.815336|   -6.630817|    0.824596|    0.012154|
|          88|   -4.815470|   -6.633713|    0.824596|    0.012158|
|          89|   -4.815522|   -6.636698|    0.824596|    0.012163|
|          90|   -4.815480|   -6.639808|    0.824596|    0.012167|
|          91|   -4.815340|   -6.643072|    0.824596|    0.012171|
|          92|   -4.815106|   -6.646515|    0.824596|    0.012175|
|          93|   -4.814792|   -6.650158|    0.824596|    0.012179|
|          94|   -4.814419|   -6.654020|    0.824597|    0.012183|
|          95|   -4.814017|   -6.658109|    0.824597|    0.012186|
|          96|   -4.813623|   -6.662433|    0.824597|    0.012190|
|          97|   -4.813278|   -6.666990|    0.824596|    0.012194|
|          98|   -4.813026|   -6.671791|    0.824596|    0.012197|
|          99|   -4.812910|   -6.676846|    0.824595|    0.012200|
|         100|   -4.812971|   -6.682168|    0.824593|    0.012203|
|         101|   -4.813242|   -6.687768|    0.824592|    0.012163|
+-----------------------------------------------------------------------+
|Fixed CL Mode                           |Value                         |
+-----------------------------------------------------------------------+
|Current CL                              |0.824592                      |
|Target CL                               |0.824                         |
|Previous AOA                            |2.78558                       |
|Changed AoA by                          |-0.00296686                   |
+-----------------------------------------------------------------------+
+----------------------------------------------------------------+
|  Inner_Iter|    rms[Rho]|     rms[nu]|          CL|          CD|
+----------------------------------------------------------------+
|         102|   -2.721090|   -6.598478|    0.824590|    0.012166|
|         103|   -3.105971|   -6.646895|    0.824587|    0.012168|
|         104|   -3.351613|   -6.666761|    0.824583|    0.012170|
|         105|   -3.431635|   -6.680808|    0.824579|    0.012172|
|         106|   -3.485902|   -6.693107|    0.824574|    0.012174|
|         107|   -3.556131|   -6.704650|    0.824569|    0.012175|
|         108|   -3.642942|   -6.715740|    0.824563|    0.012176|
|         109|   -3.733370|   -6.726536|    0.824557|    0.012177|
|         110|   -3.810439|   -6.737101|    0.824550|    0.012178|
|         111|   -3.865621|   -6.747401|    0.824543|    0.012178|
|         112|   -3.900967|   -6.757410|    0.824536|    0.012178|
|         113|   -3.920885|   -6.767235|    0.824528|    0.012178|
|         114|   -3.929574|   -6.777065|    0.824520|    0.012177|
|         115|   -3.932922|   -6.787044|    0.824512|    0.012176|
|         116|   -3.937374|   -6.797200|    0.824504|    0.012175|
|         117|   -3.947195|   -6.807471|    0.824497|    0.012174|
|         118|   -3.963326|   -6.817802|    0.824489|    0.012173|
|         119|   -3.983935|   -6.828169|    0.824481|    0.012171|
|         120|   -4.005866|   -6.838586|    0.824474|    0.012170|
|         121|   -4.026446|   -6.849038|    0.824467|    0.012168|
|         122|   -4.044782|   -6.859460|    0.824460|    0.012166|
|         123|   -4.061708|   -6.869735|    0.824453|    0.012164|
|         124|   -4.078644|   -6.879702|    0.824447|    0.012162|
|         125|   -4.096487|   -6.889209|    0.824441|    0.012159|
|         126|   -4.115219|   -6.898132|    0.824435|    0.012157|
|         127|   -4.134123|   -6.906376|    0.824430|    0.012155|
|         128|   -4.152196|   -6.913887|    0.824425|    0.012152|
|         129|   -4.168493|   -6.920620|    0.824421|    0.012149|
|         130|   -4.182324|   -6.926585|    0.824416|    0.012147|
|         131|   -4.193396|   -6.931748|    0.824412|    0.012144|
|         132|   -4.201914|   -6.936221|    0.824408|    0.012141|
|         133|   -4.208587|   -6.940083|    0.824404|    0.012139|
|         134|   -4.214471|   -6.943415|    0.824400|    0.012136|
|         135|   -4.220698|   -6.946292|    0.824396|    0.012133|
|         136|   -4.228211|   -6.948783|    0.824392|    0.012130|
|         137|   -4.237600|   -6.950902|    0.824387|    0.012127|
|         138|   -4.249030|   -6.952714|    0.824383|    0.012124|
|         139|   -4.262243|   -6.954245|    0.824378|    0.012121|
|         140|   -4.276588|   -6.955541|    0.824373|    0.012118|
|         141|   -4.291117|   -6.956617|    0.824368|    0.012115|
|         142|   -4.304758|   -6.957474|    0.824362|    0.012111|
|         143|   -4.316575|   -6.958086|    0.824355|    0.012108|
|         144|   -4.326050|   -6.958417|    0.824349|    0.012105|
|         145|   -4.333250|   -6.958427|    0.824341|    0.012102|
|         146|   -4.338781|   -6.958063|    0.824333|    0.012098|
|         147|   -4.343569|   -6.957272|    0.824325|    0.012095|
|         148|   -4.348565|   -6.956037|    0.824315|    0.012092|
|         149|   -4.354515|   -6.954236|    0.824305|    0.012088|
|         150|   -4.361837|   -6.951828|    0.824295|    0.012085|
|         151|   -4.370603|   -6.948797|    0.824283|    0.012081|
|         152|   -4.380581|   -6.945165|    0.824271|    0.012078|
|         153|   -4.391336|   -6.940986|    0.824258|    0.012074|
|         154|   -4.402336|   -6.936319|    0.824244|    0.012071|
|         155|   -4.413076|   -6.931239|    0.824229|    0.012067|
|         156|   -4.423177|   -6.925873|    0.824214|    0.012064|
|         157|   -4.432446|   -6.920252|    0.824197|    0.012060|
|         158|   -4.440886|   -6.914490|    0.824180|    0.012057|
|         159|   -4.448654|   -6.908739|    0.824163|    0.012053|
|         160|   -4.455987|   -6.903117|    0.824144|    0.012050|
|         161|   -4.463136|   -6.897757|    0.824125|    0.012047|
|         162|   -4.470305|   -6.892788|    0.824105|    0.012043|
|         163|   -4.477628|   -6.888326|    0.824085|    0.012040|
|         164|   -4.485161|   -6.884477|    0.824065|    0.012037|
|         165|   -4.492903|   -6.881295|    0.824044|    0.012034|
|         166|   -4.500812|   -6.878838|    0.824023|    0.012031|
|         167|   -4.508831|   -6.877169|    0.824002|    0.012029|
|         168|   -4.516902|   -6.876326|    0.823982|    0.012026|
|         169|   -4.524979|   -6.876327|    0.823961|    0.012023|
|         170|   -4.533030|   -6.877176|    0.823941|    0.012021|
|         171|   -4.541030|   -6.878856|    0.823921|    0.012019|
|         172|   -4.548957|   -6.881334|    0.823902|    0.012017|
|         173|   -4.556787|   -6.884556|    0.823883|    0.012015|
|         174|   -4.564487|   -6.888449|    0.823866|    0.012014|
|         175|   -4.572016|   -6.892924|    0.823849|    0.012013|
|         176|   -4.579326|   -6.897870|    0.823834|    0.012011|
|         177|   -4.586364|   -6.903130|    0.823819|    0.012010|
|         178|   -4.593076|   -6.908570|    0.823806|    0.012010|
|         179|   -4.599415|   -6.914060|    0.823795|    0.012009|
|         180|   -4.605337|   -6.919473|    0.823785|    0.012009|
|         181|   -4.610812|   -6.924667|    0.823776|    0.012009|
|         182|   -4.615821|   -6.929520|    0.823769|    0.012009|
|         183|   -4.620357|   -6.933914|    0.823763|    0.012009|
|         184|   -4.624430|   -6.937772|    0.823759|    0.012010|
|         185|   -4.628059|   -6.941040|    0.823757|    0.012010|
|         186|   -4.631279|   -6.943703|    0.823756|    0.012011|
|         187|   -4.634136|   -6.945783|    0.823756|    0.012012|
|         188|   -4.636685|   -6.947355|    0.823758|    0.012013|
|         189|   -4.638991|   -6.948527|    0.823761|    0.012015|
|         190|   -4.641120|   -6.949439|    0.823766|    0.012016|
|         191|   -4.643146|   -6.950241|    0.823772|    0.012018|
|         192|   -4.645136|   -6.951098|    0.823779|    0.012020|
|         193|   -4.647157|   -6.952169|    0.823787|    0.012022|
|         194|   -4.649268|   -6.953583|    0.823796|    0.012024|
|         195|   -4.651521|   -6.955464|    0.823806|    0.012026|
|         196|   -4.653959|   -6.957934|    0.823817|    0.012028|
|         197|   -4.656611|   -6.961100|    0.823828|    0.012031|
|         198|   -4.659497|   -6.965049|    0.823840|    0.012033|
|         199|   -4.662626|   -6.969860|    0.823852|    0.012036|
|         200|   -4.665993|   -6.975566|    0.823865|    0.012038|
|         201|   -4.669582|   -6.982179|    0.823878|    0.012050|
+-----------------------------------------------------------------------+
|Fixed CL Mode                           |Value                         |
+-----------------------------------------------------------------------+
|Current CL                              |0.823878                      |
|Target CL                               |0.824                         |
|Previous AOA                            |2.78262                       |
|Changed AoA by                          |0.00067354                    |
+-----------------------------------------------------------------------+
+----------------------------------------------------------------+
|  Inner_Iter|    rms[Rho]|     rms[nu]|          CL|          CD|
+----------------------------------------------------------------+
|         202|   -3.364624|   -6.967103|    0.823892|    0.012053|
|         203|   -3.749089|   -6.986392|    0.823905|    0.012056|
|         204|   -3.993981|   -6.998577|    0.823919|    0.012059|
|         205|   -4.072325|   -7.009940|    0.823932|    0.012061|
|         206|   -4.123694|   -7.021415|    0.823945|    0.012064|
|         207|   -4.189149|   -7.033120|    0.823959|    0.012067|
|         208|   -4.267840|   -7.044939|    0.823971|    0.012070|
|         209|   -4.345440|   -7.056684|    0.823984|    0.012073|
|         210|   -4.405933|   -7.068113|    0.823996|    0.012076|
|         211|   -4.444239|   -7.078940|    0.824007|    0.012078|
|         212|   -4.465382|   -7.088876|    0.824018|    0.012081|
|         213|   -4.475306|   -7.097673|    0.824029|    0.012084|
|         214|   -4.478428|   -7.105152|    0.824038|    0.012087|
|         215|   -4.479118|   -7.111157|    0.824047|    0.012089|
|         216|   -4.481412|   -7.115569|    0.824055|    0.012092|
|         217|   -4.487642|   -7.118329|    0.824063|    0.012094|
|         218|   -4.497862|   -7.119461|    0.824069|    0.012097|
|         219|   -4.510350|   -7.119078|    0.824075|    0.012099|
|         220|   -4.522763|   -7.117370|    0.824079|    0.012101|
|         221|   -4.533399|   -7.114570|    0.824083|    0.012103|
|         222|   -4.541874|   -7.110933|    0.824085|    0.012105|
|         223|   -4.548870|   -7.106735|    0.824087|    0.012107|
|         224|   -4.555364|   -7.102240|    0.824087|    0.012109|
|         225|   -4.562019|   -7.097688|    0.824087|    0.012110|
|         226|   -4.569026|   -7.093296|    0.824085|    0.012112|
|         227|   -4.576250|   -7.089259|    0.824083|    0.012113|
|         228|   -4.583439|   -7.085737|    0.824079|    0.012114|
|         229|   -4.590338|   -7.082865|    0.824075|    0.012115|
|         230|   -4.596748|   -7.080746|    0.824070|    0.012116|
|         231|   -4.602553|   -7.079470|    0.824064|    0.012117|
|         232|   -4.607759|   -7.079102|    0.824057|    0.012118|
|         233|   -4.612523|   -7.079682|    0.824049|    0.012118|
|         234|   -4.617129|   -7.081231|    0.824041|    0.012118|
|         235|   -4.621922|   -7.083752|    0.824032|    0.012119|
|         236|   -4.627225|   -7.087222|    0.824023|    0.012119|
|         237|   -4.633264|   -7.091594|    0.824013|    0.012119|
|         238|   -4.640130|   -7.096799|    0.824003|    0.012118|
|         239|   -4.647767|   -7.102751|    0.823992|    0.012118|
|         240|   -4.655986|   -7.109338|    0.823981|    0.012118|
|         241|   -4.664503|   -7.116426|    0.823971|    0.012117|
|         242|   -4.672996|   -7.123857|    0.823960|    0.012116|
|         243|   -4.681180|   -7.131455|    0.823949|    0.012116|
|         244|   -4.688870|   -7.139027|    0.823938|    0.012115|
|         245|   -4.696021|   -7.146371|    0.823928|    0.012114|
|         246|   -4.702724|   -7.153285|    0.823917|    0.012113|
|         247|   -4.709159|   -7.159577|    0.823907|    0.012112|
|         248|   -4.715538|   -7.165079|    0.823898|    0.012111|
|         249|   -4.722034|   -7.169655|    0.823889|    0.012110|
|         250|   -4.728743|   -7.173220|    0.823880|    0.012109|
|         251|   -4.735671|   -7.175733|    0.823873|    0.012108|
|         252|   -4.742739|   -7.177212|    0.823865|    0.012107|
|         253|   -4.749812|   -7.177726|    0.823859|    0.012106|
|         254|   -4.756737|   -7.177389|    0.823853|    0.012105|
|         255|   -4.763379|   -7.176346|    0.823848|    0.012104|
|         256|   -4.769640|   -7.174761|    0.823844|    0.012103|
|         257|   -4.775477|   -7.172802|    0.823840|    0.012102|
|         258|   -4.780897|   -7.170635|    0.823838|    0.012101|
|         259|   -4.785943|   -7.168410|    0.823836|    0.012100|
|         260|   -4.790674|   -7.166254|    0.823835|    0.012099|
|         261|   -4.795150|   -7.164270|    0.823834|    0.012098|
|         262|   -4.799416|   -7.162527|    0.823834|    0.012097|
|         263|   -4.803497|   -7.161072|    0.823835|    0.012096|
|         264|   -4.807396|   -7.159926|    0.823837|    0.012095|
|         265|   -4.811100|   -7.159082|    0.823839|    0.012094|
|         266|   -4.814584|   -7.158494|    0.823841|    0.012094|
|         267|   -4.817815|   -7.158103|    0.823844|    0.012093|
|         268|   -4.820763|   -7.157836|    0.823847|    0.012092|
|         269|   -4.823396|   -7.157600|    0.823851|    0.012091|
|         270|   -4.825685|   -7.157286|    0.823854|    0.012091|
|         271|   -4.827608|   -7.156783|    0.823858|    0.012090|
|         272|   -4.829141|   -7.155989|    0.823862|    0.012089|
|         273|   -4.830268|   -7.154806|    0.823866|    0.012089|
|         274|   -4.830974|   -7.153160|    0.823870|    0.012088|
|         275|   -4.831251|   -7.150998|    0.823874|    0.012088|
|         276|   -4.831096|   -7.148296|    0.823877|    0.012087|
|         277|   -4.830514|   -7.145058|    0.823881|    0.012086|
|         278|   -4.829517|   -7.141315|    0.823884|    0.012086|
|         279|   -4.828127|   -7.137132|    0.823887|    0.012085|
|         280|   -4.826372|   -7.132582|    0.823889|    0.012085|
|         281|   -4.824286|   -7.127754|    0.823892|    0.012084|
|         282|   -4.821910|   -7.122747|    0.823893|    0.012084|
|         283|   -4.819286|   -7.117666|    0.823895|    0.012083|
|         284|   -4.816462|   -7.112615|    0.823896|    0.012082|
|         285|   -4.813485|   -7.107695|    0.823896|    0.012082|
|         286|   -4.810403|   -7.102996|    0.823897|    0.012081|
|         287|   -4.807263|   -7.098597|    0.823897|    0.012081|
|         288|   -4.804109|   -7.094564|    0.823896|    0.012080|
|         289|   -4.800984|   -7.090944|    0.823895|    0.012080|
|         290|   -4.797928|   -7.087769|    0.823894|    0.012079|
|         291|   -4.794976|   -7.085060|    0.823893|    0.012079|
|         292|   -4.792162|   -7.082824|    0.823892|    0.012078|
|         293|   -4.789513|   -7.081058|    0.823890|    0.012078|
|         294|   -4.787054|   -7.079742|    0.823888|    0.012078|
|         295|   -4.784808|   -7.078849|    0.823886|    0.012077|
|         296|   -4.782791|   -7.078344|    0.823883|    0.012077|
|         297|   -4.781019|   -7.078182|    0.823881|    0.012077|
|         298|   -4.779503|   -7.078316|    0.823879|    0.012077|
|         299|   -4.778250|   -7.078695|    0.823876|    0.012077|
|         300|   -4.777268|   -7.079270|    0.823874|    0.012077|
|         301|   -4.776559|   -7.079993|    0.823871|    0.012086|
+-----------------------------------------------------------------------+
|Fixed CL Mode                           |Value                         |
+-----------------------------------------------------------------------+
|Current CL                              |0.823871                      |
|Target CL                               |0.824                         |
|Previous AOA                            |2.78329                       |
|Changed AoA by                          |0.000631716                   |
+-----------------------------------------------------------------------+
+----------------------------------------------------------------+
|  Inner_Iter|    rms[Rho]|     rms[nu]|          CL|          CD|
+----------------------------------------------------------------+
|         302|   -3.392429|   -7.050379|    0.823868|    0.012086|
|         303|   -3.775379|   -7.066327|    0.823866|    0.012086|
|         304|   -4.016563|   -7.071872|    0.823863|    0.012086|
|         305|   -4.093934|   -7.075241|    0.823861|    0.012086|
|         306|   -4.145688|   -7.077748|    0.823859|    0.012087|
|         307|   -4.211443|   -7.079724|    0.823856|    0.012087|
|         308|   -4.290485|   -7.081299|    0.823854|    0.012088|
|         309|   -4.369425|   -7.082573|    0.823852|    0.012088|
|         310|   -4.433309|   -7.083619|    0.823849|    0.012089|
|         311|   -4.477021|   -7.084489|    0.823847|    0.012089|
|         312|   -4.504414|   -7.085227|    0.823845|    0.012090|
|         313|   -4.520095|   -7.085895|    0.823843|    0.012091|
|         314|   -4.527614|   -7.086564|    0.823841|    0.012092|
|         315|   -4.531265|   -7.087285|    0.823839|    0.012092|
|         316|   -4.535644|   -7.088083|    0.823837|    0.012093|
|         317|   -4.543796|   -7.088968|    0.823835|    0.012094|
|         318|   -4.556332|   -7.089946|    0.823833|    0.012095|
|         319|   -4.571850|   -7.091032|    0.823831|    0.012096|
|         320|   -4.588115|   -7.092245|    0.823829|    0.012097|
|         321|   -4.603399|   -7.093599|    0.823828|    0.012098|
|         322|   -4.617244|   -7.095101|    0.823826|    0.012099|
|         323|   -4.630258|   -7.096748|    0.823824|    0.012101|
|         324|   -4.643315|   -7.098534|    0.823822|    0.012102|
|         325|   -4.656870|   -7.100454|    0.823820|    0.012103|
|         326|   -4.670778|   -7.102507|    0.823819|    0.012104|
|         327|   -4.684487|   -7.104692|    0.823817|    0.012105|
|         328|   -4.697342|   -7.107011|    0.823815|    0.012106|
|         329|   -4.708802|   -7.109466|    0.823814|    0.012107|
|         330|   -4.718547|   -7.112060|    0.823812|    0.012108|
|         331|   -4.726516|   -7.114797|    0.823810|    0.012109|
|         332|   -4.732925|   -7.117679|    0.823809|    0.012110|
|         333|   -4.738229|   -7.120707|    0.823807|    0.012111|
|         334|   -4.743029|   -7.123880|    0.823806|    0.012112|
|         335|   -4.747929|   -7.127190|    0.823804|    0.012113|
|         336|   -4.753394|   -7.130626|    0.823803|    0.012114|
|         337|   -4.759670|   -7.134176|    0.823802|    0.012115|
|         338|   -4.766753|   -7.137829|    0.823800|    0.012116|
|         339|   -4.774402|   -7.141570|    0.823799|    0.012116|
|         340|   -4.782200|   -7.145388|    0.823798|    0.012117|
|         341|   -4.789629|   -7.149272|    0.823797|    0.012118|
|         342|   -4.796189|   -7.153217|    0.823796|    0.012118|
|         343|   -4.801512|   -7.157214|    0.823795|    0.012119|
|         344|   -4.805462|   -7.161255|    0.823794|    0.012119|
|         345|   -4.808156|   -7.165333|    0.823794|    0.012120|
|         346|   -4.809914|   -7.169444|    0.823793|    0.012120|
|         347|   -4.811156|   -7.173582|    0.823793|    0.012121|
|         348|   -4.812283|   -7.177743|    0.823793|    0.012121|
|         349|   -4.813588|   -7.181921|    0.823792|    0.012121|
|         350|   -4.815217|   -7.186109|    0.823792|    0.012121|
|         351|   -4.817171|   -7.190303|    0.823792|    0.012122|
|         352|   -4.819339|   -7.194498|    0.823793|    0.012122|
|         353|   -4.821554|   -7.198691|    0.823793|    0.012122|
|         354|   -4.823643|   -7.202880|    0.823794|    0.012122|
|         355|   -4.825472|   -7.207066|    0.823794|    0.012122|
|         356|   -4.826974|   -7.211248|    0.823795|    0.012122|
|         357|   -4.828151|   -7.215428|    0.823797|    0.012122|
|         358|   -4.829065|   -7.219612|    0.823798|    0.012121|
|         359|   -4.829813|   -7.223814|    0.823799|    0.012121|
|         360|   -4.830506|   -7.228039|    0.823801|    0.012121|
|         361|   -4.831244|   -7.232299|    0.823803|    0.012121|
|         362|   -4.832111|   -7.236607|    0.823805|    0.012121|
|         363|   -4.833164|   -7.240975|    0.823807|    0.012120|
|         364|   -4.834439|   -7.245416|    0.823809|    0.012120|
|         365|   -4.835958|   -7.249943|    0.823812|    0.012120|
|         366|   -4.837733|   -7.254574|    0.823814|    0.012120|
|         367|   -4.839774|   -7.259324|    0.823817|    0.012119|
|         368|   -4.842090|   -7.264211|    0.823820|    0.012119|
|         369|   -4.844693|   -7.269253|    0.823823|    0.012119|
|         370|   -4.847599|   -7.274460|    0.823826|    0.012118|
|         371|   -4.850822|   -7.279847|    0.823829|    0.012118|
|         372|   -4.854378|   -7.285420|    0.823832|    0.012118|
|         373|   -4.858277|   -7.291184|    0.823835|    0.012117|
|         374|   -4.862529|   -7.297141|    0.823838|    0.012117|
|         375|   -4.867140|   -7.303288|    0.823841|    0.012117|
|         376|   -4.872110|   -7.309615|    0.823844|    0.012116|
|         377|   -4.877439|   -7.316108|    0.823847|    0.012116|
|         378|   -4.883122|   -7.322746|    0.823849|    0.012116|
|         379|   -4.889151|   -7.329516|    0.823852|    0.012115|
|         380|   -4.895517|   -7.336380|    0.823854|    0.012115|
|         381|   -4.902206|   -7.343285|    0.823857|    0.012115|
|         382|   -4.909202|   -7.350173|    0.823859|    0.012114|
|         383|   -4.916487|   -7.356983|    0.823861|    0.012114|
|         384|   -4.924036|   -7.363651|    0.823863|    0.012114|
|         385|   -4.931824|   -7.370115|    0.823865|    0.012114|
|         386|   -4.939819|   -7.376315|    0.823866|    0.012113|
|         387|   -4.947985|   -7.382196|    0.823867|    0.012113|
|         388|   -4.956283|   -7.387709|    0.823869|    0.012113|
|         389|   -4.964668|   -7.392820|    0.823870|    0.012113|
|         390|   -4.973093|   -7.397505|    0.823871|    0.012113|
|         391|   -4.981504|   -7.401755|    0.823871|    0.012113|
|         392|   -4.989845|   -7.405582|    0.823872|    0.012113|
|         393|   -4.998056|   -7.409018|    0.823872|    0.012113|
|         394|   -5.006077|   -7.412110|    0.823873|    0.012113|
|         395|   -5.013842|   -7.414921|    0.823873|    0.012112|
|         396|   -5.021289|   -7.417527|    0.823873|    0.012113|
|         397|   -5.028356|   -7.420013|    0.823873|    0.012113|
|         398|   -5.034983|   -7.422470|    0.823873|    0.012113|
|         399|   -5.041117|   -7.424987|    0.823872|    0.012113|
|         400|   -5.046708|   -7.427653|    0.823872|    0.012113|
|         401|   -5.051719|   -7.430551|    0.823872|    0.012122|
+-----------------------------------------------------------------------+
|Fixed CL Mode                           |Value                         |
+-----------------------------------------------------------------------+
|Current CL                              |0.823872                      |
|Target CL                               |0.824                         |
|Previous AOA                            |2.78392                       |
|Changed AoA by                          |0.000639776                   |
+-----------------------------------------------------------------------+
+----------------------------------------------------------------+
|  Inner_Iter|    rms[Rho]|     rms[nu]|          CL|          CD|
+----------------------------------------------------------------+
|         402|   -3.387281|   -7.309423|    0.823871|    0.012122|
|         403|   -3.771048|   -7.367287|    0.823871|    0.012122|
|         404|   -4.013235|   -7.389690|    0.823870|    0.012122|
|         405|   -4.091123|   -7.404497|    0.823869|    0.012123|
|         406|   -4.144316|   -7.416863|    0.823869|    0.012123|
|         407|   -4.213236|   -7.428065|    0.823868|    0.012123|
|         408|   -4.298104|   -7.438468|    0.823867|    0.012123|
|         409|   -4.386192|   -7.448330|    0.823867|    0.012123|
|         410|   -4.461425|   -7.457808|    0.823866|    0.012123|
|         411|   -4.515993|   -7.466944|    0.823865|    0.012123|
|         412|   -4.551769|   -7.475777|    0.823865|    0.012124|
|         413|   -4.572589|   -7.484459|    0.823864|    0.012124|
|         414|   -4.582136|   -7.493238|    0.823864|    0.012124|
|         415|   -4.585877|   -7.502281|    0.823863|    0.012124|
|         416|   -4.589992|   -7.511605|    0.823863|    0.012124|
|         417|   -4.598641|   -7.521110|    0.823862|    0.012124|
|         418|   -4.612793|   -7.530684|    0.823862|    0.012124|
|         419|   -4.630779|   -7.540293|    0.823862|    0.012124|
|         420|   -4.649758|   -7.549926|    0.823861|    0.012124|
|         421|   -4.667433|   -7.559571|    0.823861|    0.012124|
|         422|   -4.683146|   -7.569140|    0.823861|    0.012124|
|         423|   -4.697704|   -7.578483|    0.823861|    0.012124|
|         424|   -4.712314|   -7.587393|    0.823861|    0.012125|
|         425|   -4.727638|   -7.595679|    0.823862|    0.012125|
|         426|   -4.743517|   -7.603140|    0.823862|    0.012125|
|         427|   -4.759220|   -7.609637|    0.823863|    0.012125|
|         428|   -4.773856|   -7.615086|    0.823863|    0.012125|
|         429|   -4.786681|   -7.619420|    0.823864|    0.012125|
|         430|   -4.797259|   -7.622652|    0.823865|    0.012124|
|         431|   -4.805530|   -7.624844|    0.823865|    0.012124|
|         432|   -4.811832|   -7.626105|    0.823866|    0.012124|
|         433|   -4.816856|   -7.626565|    0.823867|    0.012124|
|         434|   -4.821494|   -7.626340|    0.823868|    0.012124|
|         435|   -4.826639|   -7.625531|    0.823870|    0.012124|
|         436|   -4.832994|   -7.624213|    0.823871|    0.012124|
|         437|   -4.840959|   -7.622448|    0.823872|    0.012124|
|         438|   -4.850598|   -7.620299|    0.823873|    0.012124|
|         439|   -4.861648|   -7.617833|    0.823875|    0.012124|
|         440|   -4.873572|   -7.615102|    0.823876|    0.012124|
|         441|   -4.885641|   -7.612150|    0.823878|    0.012123|
|         442|   -4.897085|   -7.609031|    0.823880|    0.012123|
|         443|   -4.907267|   -7.605797|    0.823881|    0.012123|
|         444|   -4.915870|   -7.602502|    0.823883|    0.012123|
|         445|   -4.922977|   -7.599200|    0.823885|    0.012123|
|         446|   -4.929035|   -7.595921|    0.823887|    0.012122|
|         447|   -4.934700|   -7.592688|    0.823889|    0.012122|
|         448|   -4.940648|   -7.589510|    0.823890|    0.012122|
|         449|   -4.947409|   -7.586368|    0.823893|    0.012122|
|         450|   -4.955288|   -7.583260|    0.823895|    0.012121|
|         451|   -4.964333|   -7.580146|    0.823897|    0.012121|
|         452|   -4.974379|   -7.576999|    0.823899|    0.012121|
|         453|   -4.985106|   -7.573793|    0.823902|    0.012120|
|         454|   -4.996128|   -7.570504|    0.823904|    0.012120|
|         455|   -5.007079|   -7.567110|    0.823907|    0.012120|
|         456|   -5.017677|   -7.563591|    0.823909|    0.012119|
|         457|   -5.027775|   -7.559929|    0.823912|    0.012119|
|         458|   -5.037354|   -7.556120|    0.823915|    0.012119|
|         459|   -5.046506|   -7.552175|    0.823919|    0.012118|
|         460|   -5.055377|   -7.548117|    0.823922|    0.012118|
|         461|   -5.064124|   -7.543982|    0.823925|    0.012118|
|         462|   -5.072874|   -7.539826|    0.823929|    0.012117|
|         463|   -5.081701|   -7.535712|    0.823933|    0.012117|
|         464|   -5.090627|   -7.531714|    0.823936|    0.012117|
|         465|   -5.099627|   -7.527914|    0.823940|    0.012116|
|         466|   -5.108649|   -7.524395|    0.823944|    0.012116|
|         467|   -5.117629|   -7.521243|    0.823948|    0.012116|
|         468|   -5.126504|   -7.518540|    0.823953|    0.012115|
|         469|   -5.135220|   -7.516362|    0.823957|    0.012115|
|         470|   -5.143736|   -7.514777|    0.823961|    0.012115|
|         471|   -5.152020|   -7.513841|    0.823965|    0.012115|
|         472|   -5.160043|   -7.513598|    0.823969|    0.012114|
|         473|   -5.167780|   -7.514074|    0.823973|    0.012114|
|         474|   -5.175201|   -7.515279|    0.823977|    0.012114|
|         475|   -5.182275|   -7.517203|    0.823981|    0.012114|
|         476|   -5.188970|   -7.519814|    0.823984|    0.012113|
|         477|   -5.195258|   -7.523060|    0.823987|    0.012113|
|         478|   -5.201118|   -7.526863|    0.823991|    0.012113|
|         479|   -5.206534|   -7.531131|    0.823993|    0.012113|
|         480|   -5.211507|   -7.535742|    0.823996|    0.012113|
|         481|   -5.216046|   -7.540558|    0.823998|    0.012113|
|         482|   -5.220174|   -7.545419|    0.824000|    0.012113|
|         483|   -5.223924|   -7.550160|    0.824002|    0.012112|
|         484|   -5.227337|   -7.554611|    0.824004|    0.012112|
|         485|   -5.230463|   -7.558609|    0.824005|    0.012112|
|         486|   -5.233357|   -7.562008|    0.824005|    0.012112|
|         487|   -5.236076|   -7.564691|    0.824006|    0.012112|
|         488|   -5.238680|   -7.566576|    0.824006|    0.012112|
|         489|   -5.241229|   -7.567624|    0.824006|    0.012113|
|         490|   -5.243782|   -7.567844|    0.824005|    0.012113|
|         491|   -5.246394|   -7.567289|    0.824005|    0.012113|
|         492|   -5.249119|   -7.566051|    0.824004|    0.012113|
|         493|   -5.252005|   -7.564256|    0.824002|    0.012113|
|         494|   -5.255093|   -7.562050|    0.824001|    0.012113|
|         495|   -5.258421|   -7.559590|    0.823999|    0.012114|
|         496|   -5.262020|   -7.557031|    0.823997|    0.012114|
|         497|   -5.265912|   -7.554523|    0.823995|    0.012114|
|         498|   -5.270117|   -7.552198|    0.823992|    0.012115|
|         499|   -5.274644|   -7.550169|    0.823990|    0.012115|
|         500|   -5.279498|   -7.548525|    0.823987|    0.012115|
|         501|   -5.284678|   -7.547331|    0.823984|    0.012117|
+-----------------------------------------------------------------------+
|Fixed CL Mode                           |Value                         |
+-----------------------------------------------------------------------+
|Current CL                              |0.823984                      |
|Target CL                               |0.824                         |
|Previous AOA                            |2.78456                       |
|Changed AoA by                          |6.56038e-05                   |
+-----------------------------------------------------------------------+
+----------------------------------------------------------------+
|  Inner_Iter|    rms[Rho]|     rms[nu]|          CL|          CD|
+----------------------------------------------------------------+
|         502|   -4.373346|   -7.543592|    0.823981|    0.012117|
|         503|   -4.739391|   -7.544876|    0.823978|    0.012118|
|         504|   -4.941206|   -7.545592|    0.823975|    0.012118|
|         505|   -4.998499|   -7.546581|    0.823972|    0.012119|
|         506|   -5.038351|   -7.547917|    0.823969|    0.012119|
|         507|   -5.087609|   -7.549552|    0.823965|    0.012120|
|         508|   -5.142883|   -7.551403|    0.823962|    0.012120|
|         509|   -5.194457|   -7.553376|    0.823959|    0.012121|
|         510|   -5.235378|   -7.555371|    0.823956|    0.012122|
|         511|   -5.265348|   -7.557286|    0.823953|    0.012122|
|         512|   -5.287190|   -7.559027|    0.823950|    0.012123|
|         513|   -5.302977|   -7.560511|    0.823947|    0.012123|
|         514|   -5.313958|   -7.561673|    0.823945|    0.012124|
|         515|   -5.321744|   -7.562466|    0.823942|    0.012125|
|         516|   -5.328342|   -7.562865|    0.823940|    0.012125|
|         517|   -5.335334|   -7.562866|    0.823937|    0.012126|
|         518|   -5.343306|   -7.562488|    0.823935|    0.012126|
|         519|   -5.351946|   -7.561777|    0.823933|    0.012127|
|         520|   -5.360578|   -7.560793|    0.823931|    0.012128|
|         521|   -5.368709|   -7.559608|    0.823930|    0.012128|
|         522|   -5.376248|   -7.558301|    0.823928|    0.012129|
|         523|   -5.383366|   -7.556953|    0.823927|    0.012129|
|         524|   -5.390213|   -7.555642|    0.823926|    0.012130|
|         525|   -5.396735|   -7.554444|    0.823925|    0.012130|
|         526|   -5.402691|   -7.553423|    0.823924|    0.012131|
|         527|   -5.407785|   -7.552636|    0.823924|    0.012132|
|         528|   -5.411811|   -7.552128|    0.823924|    0.012132|
|         529|   -5.414711|   -7.551931|    0.823924|    0.012132|
|         530|   -5.416580|   -7.552064|    0.823924|    0.012133|
|         531|   -5.417621|   -7.552532|    0.823924|    0.012133|
|         532|   -5.418096|   -7.553328|    0.823924|    0.012134|
|         533|   -5.418285|   -7.554431|    0.823925|    0.012134|
|         534|   -5.418442|   -7.555811|    0.823925|    0.012134|
|         535|   -5.418759|   -7.557421|    0.823926|    0.012135|
|         536|   -5.419350|   -7.559216|    0.823927|    0.012135|
|         537|   -5.420241|   -7.561140|    0.823928|    0.012135|
|         538|   -5.421391|   -7.563140|    0.823929|    0.012135|
|         539|   -5.422712|   -7.565159|    0.823930|    0.012136|
|         540|   -5.424096|   -7.567144|    0.823931|    0.012136|
|         541|   -5.425442|   -7.569053|    0.823932|    0.012136|
|         542|   -5.426680|   -7.570847|    0.823934|    0.012136|
|         543|   -5.427783|   -7.572503|    0.823935|    0.012136|
|         544|   -5.428774|   -7.574005|    0.823936|    0.012136|
|         545|   -5.429721|   -7.575352|    0.823937|    0.012136|
|         546|   -5.430720|   -7.576554|    0.823939|    0.012136|
|         547|   -5.431870|   -7.577632|    0.823940|    0.012135|
|         548|   -5.433261|   -7.578612|    0.823941|    0.012135|
|         549|   -5.434951|   -7.579529|    0.823942|    0.012135|
|         550|   -5.436967|   -7.580423|    0.823943|    0.012134|
|         551|   -5.439303|   -7.581334|    0.823944|    0.012134|
|         552|   -5.441930|   -7.582298|    0.823946|    0.012134|
|         553|   -5.444806|   -7.583349|    0.823947|    0.012133|
|         554|   -5.447887|   -7.584513|    0.823948|    0.012133|
|         555|   -5.451137|   -7.585806|    0.823949|    0.012132|
|         556|   -5.454528|   -7.587238|    0.823949|    0.012132|
|         557|   -5.458048|   -7.588803|    0.823950|    0.012131|
|         558|   -5.461690|   -7.590485|    0.823951|    0.012130|
|         559|   -5.465456|   -7.592258|    0.823952|    0.012130|
|         560|   -5.469347|   -7.594085|    0.823953|    0.012129|
|         561|   -5.473362|   -7.595922|    0.823954|    0.012128|
|         562|   -5.477494|   -7.597720|    0.823955|    0.012127|
|         563|   -5.481728|   -7.599424|    0.823955|    0.012126|
|         564|   -5.486045|   -7.600982|    0.823956|    0.012126|
|         565|   -5.490419|   -7.602342|    0.823957|    0.012125|
|         566|   -5.494818|   -7.603463|    0.823958|    0.012124|
|         567|   -5.499212|   -7.604309|    0.823959|    0.012123|
|         568|   -5.503566|   -7.604861|    0.823960|    0.012122|
|         569|   -5.507845|   -7.605112|    0.823961|    0.012121|
|         570|   -5.512013|   -7.605068|    0.823962|    0.012120|
|         571|   -5.516034|   -7.604745|    0.823963|    0.012119|
|         572|   -5.519870|   -7.604174|    0.823964|    0.012118|
|         573|   -5.523485|   -7.603396|    0.823965|    0.012117|
|         574|   -5.526843|   -7.602462|    0.823966|    0.012116|
|         575|   -5.529909|   -7.601428|    0.823968|    0.012116|
|         576|   -5.532651|   -7.600355|    0.823969|    0.012115|
|         577|   -5.535044|   -7.599301|    0.823970|    0.012114|
|         578|   -5.537065|   -7.598320|    0.823972|    0.012113|
|         579|   -5.538699|   -7.597462|    0.823973|    0.012112|
|         580|   -5.539939|   -7.596768|    0.823975|    0.012111|
|         581|   -5.540786|   -7.596272|    0.823976|    0.012110|
|         582|   -5.541250|   -7.595998|    0.823978|    0.012110|
|         583|   -5.541349|   -7.595953|    0.823979|    0.012109|
|         584|   -5.541109|   -7.596137|    0.823981|    0.012108|
|         585|   -5.540565|   -7.596540|    0.823982|    0.012108|
|         586|   -5.539756|   -7.597139|    0.823984|    0.012107|
|         587|   -5.538728|   -7.597906|    0.823986|    0.012106|
|         588|   -5.537532|   -7.598805|    0.823987|    0.012106|
|         589|   -5.536220|   -7.599794|    0.823989|    0.012105|
|         590|   -5.534847|   -7.600828|    0.823990|    0.012105|
|         591|   -5.533468|   -7.601862|    0.823992|    0.012104|
|         592|   -5.532136|   -7.602849|    0.823993|    0.012104|
|         593|   -5.530906|   -7.603748|    0.823995|    0.012104|
|         594|   -5.529826|   -7.604519|    0.823996|    0.012103|
|         595|   -5.528947|   -7.605130|    0.823997|    0.012103|
|         596|   -5.528311|   -7.605554|    0.823998|    0.012103|
|         597|   -5.527959|   -7.605771|    0.824000|    0.012103|
|         598|   -5.527929|   -7.605773|    0.824001|    0.012102|
|         599|   -5.528252|   -7.605556|    0.824002|    0.012102|
|         600|   -5.528959|   -7.605126|    0.824003|    0.012102|
|         601|   -5.530071|   -7.604493|    0.824004|    0.012102|
+-----------------------------------------------------------------------+
|Fixed CL Mode                           |Value                         |
+-----------------------------------------------------------------------+
|Current CL                              |0.824004                      |
|Target CL                               |0.824                         |
|Previous AOA                            |2.78463                       |
|Changed AoA by                          |-1.41174e-05                  |
+-----------------------------------------------------------------------+
+----------------------------------------------------------------+
|  Inner_Iter|    rms[Rho]|     rms[nu]|          CL|          CD|
+----------------------------------------------------------------+
|         602|   -5.020897|   -7.603494|    0.824005|    0.012102|
|         603|   -5.326571|   -7.602604|    0.824005|    0.012102|
|         604|   -5.454571|   -7.601493|    0.824006|    0.012102|
|         605|   -5.485326|   -7.600233|    0.824007|    0.012102|
|         606|   -5.501514|   -7.598853|    0.824007|    0.012102|
|         607|   -5.516810|   -7.597374|    0.824008|    0.012103|
|         608|   -5.530678|   -7.595816|    0.824008|    0.012103|
|         609|   -5.541387|   -7.594194|    0.824009|    0.012103|
|         610|   -5.548974|   -7.592522|    0.824009|    0.012103|
|         611|   -5.554769|   -7.590810|    0.824010|    0.012104|
|         612|   -5.559984|   -7.589066|    0.824010|    0.012104|
|         613|   -5.565230|   -7.587297|    0.824010|    0.012104|
|         614|   -5.570756|   -7.585508|    0.824010|    0.012105|
|         615|   -5.576732|   -7.583705|    0.824011|    0.012105|
|         616|   -5.583294|   -7.581894|    0.824011|    0.012105|
|         617|   -5.590470|   -7.580081|    0.824011|    0.012106|
|         618|   -5.598122|   -7.578274|    0.824011|    0.012106|
|         619|   -5.605988|   -7.576483|    0.824011|    0.012107|
|         620|   -5.613778|   -7.574720|    0.824011|    0.012107|
|         621|   -5.621281|   -7.572996|    0.824011|    0.012108|
|         622|   -5.628393|   -7.571326|    0.824011|    0.012108|
|         623|   -5.635100|   -7.569726|    0.824011|    0.012109|
|         624|   -5.641419|   -7.568211|    0.824011|    0.012110|
|         625|   -5.647356|   -7.566796|    0.824010|    0.012110|
|         626|   -5.652890|   -7.565495|    0.824010|    0.012111|
|         627|   -5.657983|   -7.564322|    0.824010|    0.012111|
|         628|   -5.662585|   -7.563290|    0.824010|    0.012112|
|         629|   -5.666655|   -7.562407|    0.824010|    0.012112|
|         630|   -5.670162|   -7.561682|    0.824010|    0.012113|
|         631|   -5.673093|   -7.561119|    0.824009|    0.012114|
|         632|   -5.675459|   -7.560721|    0.824009|    0.012114|
|         633|   -5.677300|   -7.560487|    0.824009|    0.012115|
|         634|   -5.678681|   -7.560416|    0.824008|    0.012115|
|         635|   -5.679685|   -7.560503|    0.824008|    0.012116|
|         636|   -5.680403|   -7.560742|    0.824007|    0.012117|
|         637|   -5.680927|   -7.561125|    0.824007|    0.012117|
|         638|   -5.681340|   -7.561644|    0.824006|    0.012118|
|         639|   -5.681715|   -7.562290|    0.824006|    0.012118|
|         640|   -5.682111|   -7.563054|    0.824005|    0.012119|
|         641|   -5.682580|   -7.563928|    0.824005|    0.012119|
|         642|   -5.683162|   -7.564903|    0.824004|    0.012120|
|         643|   -5.683896|   -7.565973|    0.824003|    0.012120|
|         644|   -5.684816|   -7.567131|    0.824002|    0.012121|
|         645|   -5.685957|   -7.568374|    0.824002|    0.012121|
|         646|   -5.687352|   -7.569700|    0.824001|    0.012121|
|         647|   -5.689031|   -7.571108|    0.824000|    0.012122|
|         648|   -5.691019|   -7.572599|    0.823999|    0.012122|
|         649|   -5.693332|   -7.574175|    0.823998|    0.012122|
|         650|   -5.695982|   -7.575840|    0.823997|    0.012123|
|         651|   -5.698971|   -7.577597|    0.823996|    0.012123|
|         652|   -5.702294|   -7.579453|    0.823995|    0.012123|
|         653|   -5.705942|   -7.581411|    0.823994|    0.012123|
|         654|   -5.709900|   -7.583480|    0.823992|    0.012124|
|         655|   -5.714154|   -7.585664|    0.823991|    0.012124|
|         656|   -5.718686|   -7.587969|    0.823990|    0.012124|
|         657|   -5.723479|   -7.590401|    0.823989|    0.012124|
|         658|   -5.728513|   -7.592965|    0.823988|    0.012124|
|         659|   -5.733770|   -7.595666|    0.823987|    0.012124|
|         660|   -5.739227|   -7.598506|    0.823985|    0.012124|
|         661|   -5.744863|   -7.601490|    0.823984|    0.012124|
|         662|   -5.750653|   -7.604617|    0.823983|    0.012124|
|         663|   -5.756570|   -7.607888|    0.823982|    0.012124|
|         664|   -5.762587|   -7.611304|    0.823981|    0.012124|
|         665|   -5.768673|   -7.614861|    0.823980|    0.012123|
|         666|   -5.774799|   -7.618559|    0.823978|    0.012123|
|         667|   -5.780935|   -7.622394|    0.823977|    0.012123|
|         668|   -5.787048|   -7.626361|    0.823976|    0.012123|
|         669|   -5.793108|   -7.630456|    0.823975|    0.012123|
|         670|   -5.799086|   -7.634673|    0.823974|    0.012122|
|         671|   -5.804953|   -7.639007|    0.823973|    0.012122|
|         672|   -5.810679|   -7.643450|    0.823972|    0.012122|
|         673|   -5.816238|   -7.647995|    0.823972|    0.012121|
|         674|   -5.821604|   -7.652636|    0.823971|    0.012121|
|         675|   -5.826756|   -7.657364|    0.823970|    0.012121|
|         676|   -5.831672|   -7.662173|    0.823969|    0.012120|
|         677|   -5.836333|   -7.667054|    0.823969|    0.012120|
|         678|   -5.840726|   -7.671999|    0.823968|    0.012119|
|         679|   -5.844838|   -7.677001|    0.823967|    0.012119|
|         680|   -5.848662|   -7.682051|    0.823967|    0.012118|
|         681|   -5.852194|   -7.687141|    0.823966|    0.012118|
|         682|   -5.855435|   -7.692264|    0.823966|    0.012118|
|         683|   -5.858388|   -7.697411|    0.823965|    0.012117|
|         684|   -5.861063|   -7.702576|    0.823965|    0.012117|
|         685|   -5.863472|   -7.707751|    0.823965|    0.012116|
|         686|   -5.865631|   -7.712928|    0.823965|    0.012116|
|         687|   -5.867562|   -7.718101|    0.823964|    0.012115|
|         688|   -5.869287|   -7.723264|    0.823964|    0.012115|
|         689|   -5.870831|   -7.728410|    0.823964|    0.012114|
|         690|   -5.872224|   -7.733535|    0.823964|    0.012114|
|         691|   -5.873496|   -7.738633|    0.823964|    0.012113|
|         692|   -5.874678|   -7.743701|    0.823964|    0.012113|
|         693|   -5.875801|   -7.748733|    0.823964|    0.012112|
|         694|   -5.876897|   -7.753726|    0.823964|    0.012112|
|         695|   -5.877998|   -7.758679|    0.823964|    0.012111|
|         696|   -5.879130|   -7.763588|    0.823964|    0.012111|
|         697|   -5.880323|   -7.768454|    0.823964|    0.012110|
|         698|   -5.881600|   -7.773275|    0.823965|    0.012110|
|         699|   -5.882982|   -7.778052|    0.823965|    0.012110|
|         700|   -5.884488|   -7.782786|    0.823965|    0.012109|
|         701|   -5.886132|   -7.787480|    0.823965|    0.012111|
+-----------------------------------------------------------------------+
|Fixed CL Mode                           |Value                         |
+-----------------------------------------------------------------------+
|Current CL                              |0.823965                      |
|Target CL                               |0.824                         |
|Previous AOA                            |2.78461                       |
|Changed AoA by                          |0.000174721                   |
+-----------------------------------------------------------------------+
+----------------------------------------------------------------+
|  Inner_Iter|    rms[Rho]|     rms[nu]|          CL|          CD|
+----------------------------------------------------------------+
|         702|   -3.951123|   -7.735517|    0.823966|    0.012111|
|         703|   -4.336476|   -7.766766|    0.823966|    0.012111|
|         704|   -4.582743|   -7.779349|    0.823966|    0.012110|
|         705|   -4.662337|   -7.788170|    0.823967|    0.012110|
|         706|   -4.715917|   -7.795735|    0.823967|    0.012110|
|         707|   -4.785511|   -7.802609|    0.823967|    0.012110|
|         708|   -4.871721|   -7.808929|    0.823968|    0.012109|
|         709|   -4.961621|   -7.814769|    0.823968|    0.012109|
|         710|   -5.038389|   -7.820176|    0.823968|    0.012109|
|         711|   -5.093567|   -7.825173|    0.823969|    0.012109|
|         712|   -5.129080|   -7.829801|    0.823969|    0.012109|
|         713|   -5.149172|   -7.834170|    0.823970|    0.012109|
|         714|   -5.157958|   -7.838429|    0.823970|    0.012108|
|         715|   -5.161302|   -7.842698|    0.823971|    0.012108|
|         716|   -5.165653|   -7.847031|    0.823971|    0.012108|
|         717|   -5.175267|   -7.851439|    0.823972|    0.012108|
|         718|   -5.191070|   -7.855929|    0.823972|    0.012108|
|         719|   -5.211213|   -7.860515|    0.823973|    0.012108|
|         720|   -5.232538|   -7.865222|    0.823973|    0.012108|
|         721|   -5.252386|   -7.870063|    0.823973|    0.012108|
|         722|   -5.269884|   -7.875032|    0.823974|    0.012108|
|         723|   -5.285873|   -7.880099|    0.823974|    0.012109|
|         724|   -5.301760|   -7.885222|    0.823975|    0.012109|
|         725|   -5.318431|   -7.890364|    0.823975|    0.012109|
|         726|   -5.335876|   -7.895489|    0.823976|    0.012109|
|         727|   -5.353417|   -7.900576|    0.823976|    0.012109|
|         728|   -5.370118|   -7.905614|    0.823976|    0.012109|
|         729|   -5.385112|   -7.910596|    0.823977|    0.012110|
|         730|   -5.397789|   -7.915525|    0.823977|    0.012110|
|         731|   -5.407912|   -7.920408|    0.823978|    0.012110|
|         732|   -5.415704|   -7.925250|    0.823978|    0.012110|
|         733|   -5.421852|   -7.930061|    0.823978|    0.012111|
|         734|   -5.427353|   -7.934841|    0.823979|    0.012111|
|         735|   -5.433270|   -7.939590|    0.823979|    0.012111|
|         736|   -5.440488|   -7.944305|    0.823979|    0.012111|
|         737|   -5.449563|   -7.948973|    0.823980|    0.012112|
|         738|   -5.460655|   -7.953583|    0.823980|    0.012112|
|         739|   -5.473529|   -7.958122|    0.823980|    0.012112|
|         740|   -5.487587|   -7.962574|    0.823981|    0.012113|
|         741|   -5.501951|   -7.966930|    0.823981|    0.012113|
|         742|   -5.515627|   -7.971179|    0.823982|    0.012113|
|         743|   -5.527735|   -7.975317|    0.823982|    0.012114|
|         744|   -5.537765|   -7.979337|    0.823982|    0.012114|
|         745|   -5.545729|   -7.983238|    0.823983|    0.012114|
|         746|   -5.552142|   -7.987012|    0.823983|    0.012115|
|         747|   -5.557820|   -7.990649|    0.823984|    0.012115|
|         748|   -5.563626|   -7.994140|    0.823984|    0.012115|
|         749|   -5.570246|   -7.997478|    0.823985|    0.012116|
|         750|   -5.578067|   -8.000655|    0.823985|    0.012116|
|         751|   -5.587148|   -8.003661|    0.823986|    0.012116|
|         752|   -5.597263|   -8.006486|    0.823987|    0.012117|
|         753|   -5.607982|   -8.009122|    0.823987|    0.012117|
|         754|   -5.618782|   -8.011561|    0.823988|    0.012117|
|         755|   -5.629163|   -8.013803|    0.823989|    0.012118|
|         756|   -5.638743|   -8.015857|    0.823990|    0.012118|
|         757|   -5.647321|   -8.017739|    0.823990|    0.012118|
|         758|   -5.654881|   -8.019473|    0.823991|    0.012119|
|         759|   -5.661555|   -8.021089|    0.823992|    0.012119|
|         760|   -5.667554|   -8.022626|    0.823993|    0.012119|
|         761|   -5.673097|   -8.024128|    0.823994|    0.012119|
|         762|   -5.678364|   -8.025645|    0.823995|    0.012120|
|         763|   -5.683468|   -8.027232|    0.823996|    0.012120|
|         764|   -5.688454|   -8.028947|    0.823997|    0.012120|
|         765|   -5.693317|   -8.030847|    0.823998|    0.012120|
|         766|   -5.698021|   -8.032989|    0.824000|    0.012121|
|         767|   -5.702524|   -8.035425|    0.824001|    0.012121|
|         768|   -5.706791|   -8.038200|    0.824002|    0.012121|
|         769|   -5.710801|   -8.041352|    0.824003|    0.012121|
|         770|   -5.714553|   -8.044908|    0.824004|    0.012121|
|         771|   -5.718054|   -8.048881|    0.824005|    0.012121|
|         772|   -5.721317|   -8.053270|    0.824006|    0.012121|
|         773|   -5.724357|   -8.058060|    0.824007|    0.012122|
|         774|   -5.727185|   -8.063220|    0.824008|    0.012122|
|         775|   -5.729808|   -8.068702|    0.824009|    0.012122|
|         776|   -5.732230|   -8.074444|    0.824009|    0.012122|
|         777|   -5.734454|   -8.080370|    0.824010|    0.012122|
|         778|   -5.736486|   -8.086389|    0.824011|    0.012122|
|         779|   -5.738334|   -8.092410|    0.824011|    0.012122|
|         780|   -5.740010|   -8.098341|    0.824012|    0.012122|
|         781|   -5.741528|   -8.104084|    0.824012|    0.012121|
|         782|   -5.742909|   -8.109549|    0.824012|    0.012121|
|         783|   -5.744173|   -8.114654|    0.824013|    0.012121|
|         784|   -5.745344|   -8.119328|    0.824013|    0.012121|
|         785|   -5.746444|   -8.123523|    0.824013|    0.012121|
|         786|   -5.747498|   -8.127220|    0.824012|    0.012121|
|         787|   -5.748528|   -8.130425|    0.824012|    0.012121|
|         788|   -5.749557|   -8.133169|    0.824012|    0.012120|
|         789|   -5.750606|   -8.135508|    0.824011|    0.012120|
|         790|   -5.751695|   -8.137517|    0.824011|    0.012120|
|         791|   -5.752840|   -8.139281|    0.824010|    0.012120|
|         792|   -5.754056|   -8.140894|    0.824010|    0.012119|
|         793|   -5.755355|   -8.142448|    0.824009|    0.012119|
|         794|   -5.756745|   -8.144032|    0.824008|    0.012119|
|         795|   -5.758233|   -8.145722|    0.824008|    0.012119|
|         796|   -5.759820|   -8.147582|    0.824007|    0.012118|
|         797|   -5.761504|   -8.149657|    0.824006|    0.012118|
|         798|   -5.763280|   -8.151976|    0.824005|    0.012118|
|         799|   -5.765139|   -8.154547|    0.824004|    0.012117|
|         800|   -5.767068|   -8.157356|    0.824003|    0.012117|
|         801|   -5.769052|   -8.160373|    0.824002|    0.012117|
+-----------------------------------------------------------------------+
|Fixed CL Mode                           |Value                         |
+-----------------------------------------------------------------------+
|Current CL                              |0.824002                      |
|Target CL                               |0.824                         |
|Previous AOA                            |2.78479                       |
|Changed AoA by                          |-1.67419e-05                  |
+-----------------------------------------------------------------------+
+----------------------------------------------------------------+
|  Inner_Iter|    rms[Rho]|     rms[nu]|          CL|          CD|
+----------------------------------------------------------------+
|         802|   -4.964283|   -8.160165|    0.824002|    0.012116|
|         803|   -5.328205|   -8.165119|    0.824001|    0.012116|
|         804|   -5.530021|   -8.168869|    0.824000|    0.012116|
|         805|   -5.584875|   -8.172273|    0.823999|    0.012115|
|         806|   -5.616727|   -8.175385|    0.823998|    0.012115|
|         807|   -5.652583|   -8.178146|    0.823997|    0.012115|
|         808|   -5.689037|   -8.180480|    0.823996|    0.012114|
|         809|   -5.718072|   -8.182311|    0.823995|    0.012114|
|         810|   -5.736231|   -8.183576|    0.823995|    0.012114|
|         811|   -5.745818|   -8.184222|    0.823994|    0.012113|
|         812|   -5.750458|   -8.184222|    0.823993|    0.012113|
|         813|   -5.752415|   -8.183576|    0.823992|    0.012113|
|         814|   -5.752912|   -8.182314|    0.823992|    0.012113|
|         815|   -5.752929|   -8.180489|    0.823991|    0.012112|
|         816|   -5.753301|   -8.178174|    0.823991|    0.012112|
|         817|   -5.754457|   -8.175458|    0.823990|    0.012112|
|         818|   -5.756287|   -8.172444|    0.823990|    0.012112|
|         819|   -5.758308|   -8.169242|    0.823989|    0.012111|
|         820|   -5.759984|   -8.165962|    0.823989|    0.012111|
|         821|   -5.760994|   -8.162714|    0.823989|    0.012111|
|         822|   -5.761313|   -8.159598|    0.823989|    0.012111|
|         823|   -5.761112|   -8.156707|    0.823988|    0.012111|
|         824|   -5.760602|   -8.154120|    0.823988|    0.012111|
|         825|   -5.759929|   -8.151906|    0.823988|    0.012110|
|         826|   -5.759155|   -8.150123|    0.823988|    0.012110|
|         827|   -5.758289|   -8.148815|    0.823988|    0.012110|
|         828|   -5.757316|   -8.148013|    0.823989|    0.012110|
|         829|   -5.756222|   -8.147736|    0.823989|    0.012110|
|         830|   -5.754998|   -8.147994|    0.823989|    0.012110|
|         831|   -5.753647|   -8.148783|    0.823989|    0.012110|
|         832|   -5.752188|   -8.150090|    0.823990|    0.012110|
|         833|   -5.750661|   -8.151891|    0.823990|    0.012110|
|         834|   -5.749123|   -8.154154|    0.823990|    0.012110|
|         835|   -5.747636|   -8.156838|    0.823991|    0.012110|
|         836|   -5.746262|   -8.159895|    0.823991|    0.012110|
|         837|   -5.745049|   -8.163269|    0.823992|    0.012110|
|         838|   -5.744028|   -8.166890|    0.823992|    0.012110|
|         839|   -5.743214|   -8.170685|    0.823993|    0.012110|
|         840|   -5.742606|   -8.174580|    0.823993|    0.012110|
|         841|   -5.742197|   -8.178494|    0.823994|    0.012110|
|         842|   -5.741976|   -8.182351|    0.823994|    0.012110|
|         843|   -5.741937|   -8.186076|    0.823995|    0.012110|
|         844|   -5.742083|   -8.189604|    0.823995|    0.012110|
|         845|   -5.742427|   -8.192875|    0.823996|    0.012110|
|         846|   -5.742991|   -8.195844|    0.823996|    0.012111|
|         847|   -5.743801|   -8.198480|    0.823997|    0.012111|
|         848|   -5.744881|   -8.200767|    0.823997|    0.012111|
|         849|   -5.746251|   -8.202707|    0.823998|    0.012111|
|         850|   -5.747923|   -8.204315|    0.823998|    0.012111|
|         851|   -5.749899|   -8.205623|    0.823998|    0.012111|
|         852|   -5.752176|   -8.206677|    0.823998|    0.012111|
|         853|   -5.754745|   -8.207534|    0.823999|    0.012112|
|         854|   -5.757595|   -8.208256|    0.823999|    0.012112|
|         855|   -5.760713|   -8.208912|    0.823999|    0.012112|
|         856|   -5.764087|   -8.209570|    0.823999|    0.012112|
|         857|   -5.767706|   -8.210297|    0.823999|    0.012112|
|         858|   -5.771558|   -8.211156|    0.823999|    0.012112|
|         859|   -5.775632|   -8.212201|    0.823999|    0.012113|
|         860|   -5.779912|   -8.213481|    0.823999|    0.012113|
|         861|   -5.784381|   -8.215032|    0.823999|    0.012113|
|         862|   -5.789017|   -8.216882|    0.823999|    0.012113|
|         863|   -5.793792|   -8.219048|    0.823999|    0.012113|
|         864|   -5.798676|   -8.221536|    0.823999|    0.012113|
|         865|   -5.803632|   -8.224339|    0.823998|    0.012113|
|         866|   -5.808619|   -8.227443|    0.823998|    0.012114|
|         867|   -5.813594|   -8.230824|    0.823998|    0.012114|
|         868|   -5.818510|   -8.234448|    0.823998|    0.012114|
|         869|   -5.823318|   -8.238277|    0.823997|    0.012114|
|         870|   -5.827966|   -8.242267|    0.823997|    0.012114|
|         871|   -5.832404|   -8.246371|    0.823996|    0.012114|
|         872|   -5.836581|   -8.250541|    0.823996|    0.012114|
|         873|   -5.840447|   -8.254731|    0.823996|    0.012114|
|         874|   -5.843956|   -8.258898|    0.823995|    0.012115|
|         875|   -5.847064|   -8.263005|    0.823995|    0.012115|
|         876|   -5.849737|   -8.267021|    0.823995|    0.012115|
|         877|   -5.851942|   -8.270925|    0.823994|    0.012115|
|         878|   -5.853659|   -8.274704|    0.823994|    0.012115|
|         879|   -5.854875|   -8.278354|    0.823994|    0.012115|
|         880|   -5.855585|   -8.281880|    0.823993|    0.012115|
|         881|   -5.855794|   -8.285296|    0.823993|    0.012115|
|         882|   -5.855519|   -8.288621|    0.823992|    0.012115|
|         883|   -5.854782|   -8.291879|    0.823992|    0.012115|
|         884|   -5.853614|   -8.295097|    0.823992|    0.012115|
|         885|   -5.852055|   -8.298303|    0.823992|    0.012116|
|         886|   -5.850147|   -8.301523|    0.823991|    0.012116|
|         887|   -5.847938|   -8.304781|    0.823991|    0.012116|
|         888|   -5.845480|   -8.308097|    0.823991|    0.012116|
|         889|   -5.842823|   -8.311484|    0.823990|    0.012116|
|         890|   -5.840020|   -8.314950|    0.823990|    0.012116|
|         891|   -5.837122|   -8.318499|    0.823990|    0.012116|
|         892|   -5.834180|   -8.322125|    0.823990|    0.012116|
|         893|   -5.831240|   -8.325818|    0.823990|    0.012116|
|         894|   -5.828347|   -8.329563|    0.823989|    0.012116|
|         895|   -5.825543|   -8.333341|    0.823989|    0.012116|
|         896|   -5.822864|   -8.337130|    0.823989|    0.012116|
|         897|   -5.820346|   -8.340906|    0.823989|    0.012116|
|         898|   -5.818019|   -8.344645|    0.823989|    0.012116|
|         899|   -5.815910|   -8.348323|    0.823988|    0.012116|
|         900|   -5.814044|   -8.351919|    0.823988|    0.012116|
|         901|   -5.812440|   -8.355415|    0.823988|    0.012117|
+-----------------------------------------------------------------------+
|Fixed CL Mode                           |Value                         |
+-----------------------------------------------------------------------+
|Current CL                              |0.823988                      |
|Target CL                               |0.824                         |
|Previous AOA                            |2.78477                       |
[...]
|        5298|   -6.039745|   -7.916524|    0.824240|    0.012118|
|        5299|   -6.046329|   -7.920376|    0.824240|    0.012118|
|        5300|   -6.052561|   -7.924232|    0.824240|    0.012118|
|        5301|   -6.058407|   -7.928107|    0.824240|    0.012118|
|        5302|   -6.063838|   -7.932014|    0.824240|    0.012118|
|        5303|   -6.068837|   -7.935962|    0.824240|    0.012118|
|        5304|   -6.073398|   -7.939960|    0.824240|    0.012118|
|        5305|   -6.077523|   -7.944013|    0.824240|    0.012118|
|        5306|   -6.081225|   -7.948125|    0.824240|    0.012118|
|        5307|   -6.084526|   -7.952298|    0.824241|    0.012118|
|        5308|   -6.087463|   -7.956536|    0.824241|    0.012118|
|        5309|   -6.090074|   -7.960838|    0.824241|    0.012118|
|        5310|   -6.092406|   -7.965207|    0.824241|    0.012118|
|        5311|   -6.094506|   -7.969645|    0.824241|    0.012118|
|        5312|   -6.096428|   -7.974153|    0.824241|    0.012118|
|        5313|   -6.098222|   -7.978734|    0.824241|    0.012118|
|        5314|   -6.099940|   -7.983390|    0.824241|    0.012118|
|        5315|   -6.101631|   -7.988126|    0.824241|    0.012118|
|        5316|   -6.103341|   -7.992943|    0.824242|    0.012118|
|        5317|   -6.105111|   -7.997843|    0.824242|    0.012118|
|        5318|   -6.106978|   -8.002828|    0.824242|    0.012118|
|        5319|   -6.108976|   -8.007900|    0.824242|    0.012118|
|        5320|   -6.111129|   -8.013062|    0.824242|    0.012118|
|        5321|   -6.113459|   -8.018316|    0.824242|    0.012118|
|        5322|   -6.115979|   -8.023666|    0.824242|    0.012118|
|        5323|   -6.118696|   -8.029113|    0.824243|    0.012118|
|        5324|   -6.121612|   -8.034657|    0.824243|    0.012118|
|        5325|   -6.124720|   -8.040295|    0.824243|    0.012118|
|        5326|   -6.128009|   -8.046024|    0.824243|    0.012118|
|        5327|   -6.131462|   -8.051839|    0.824243|    0.012118|
|        5328|   -6.135056|   -8.057731|    0.824243|    0.012119|
|        5329|   -6.138762|   -8.063693|    0.824243|    0.012119|
|        5330|   -6.142549|   -8.069713|    0.824244|    0.012119|
|        5331|   -6.146380|   -8.075781|    0.824244|    0.012119|
|        5332|   -6.150216|   -8.081884|    0.824244|    0.012119|
|        5333|   -6.154019|   -8.088010|    0.824244|    0.012119|
|        5334|   -6.157748|   -8.094146|    0.824244|    0.012119|
|        5335|   -6.161365|   -8.100279|    0.824244|    0.012119|
|        5336|   -6.164832|   -8.106398|    0.824244|    0.012119|
|        5337|   -6.168117|   -8.112491|    0.824245|    0.012119|
|        5338|   -6.171193|   -8.118547|    0.824245|    0.012119|
|        5339|   -6.174039|   -8.124559|    0.824245|    0.012119|
|        5340|   -6.176640|   -8.130517|    0.824245|    0.012120|
|        5341|   -6.178990|   -8.136417|    0.824245|    0.012120|
|        5342|   -6.181091|   -8.142255|    0.824245|    0.012120|
|        5343|   -6.182953|   -8.148027|    0.824245|    0.012120|
|        5344|   -6.184592|   -8.153733|    0.824245|    0.012120|
|        5345|   -6.186034|   -8.159375|    0.824245|    0.012120|
|        5346|   -6.187309|   -8.164956|    0.824245|    0.012120|
|        5347|   -6.188452|   -8.170478|    0.824246|    0.012120|
|        5348|   -6.189503|   -8.175948|    0.824246|    0.012120|
|        5349|   -6.190504|   -8.181371|    0.824246|    0.012120|
|        5350|   -6.191497|   -8.186755|    0.824246|    0.012120|
|        5351|   -6.192527|   -8.192106|    0.824246|    0.012120|
|        5352|   -6.193636|   -8.197433|    0.824246|    0.012120|
|        5353|   -6.194865|   -8.202742|    0.824246|    0.012120|
|        5354|   -6.196251|   -8.208042|    0.824246|    0.012120|
|        5355|   -6.197830|   -8.213340|    0.824246|    0.012120|
|        5356|   -6.199634|   -8.218643|    0.824246|    0.012120|
|        5357|   -6.201688|   -8.223957|    0.824246|    0.012120|
|        5358|   -6.204017|   -8.229288|    0.824246|    0.012120|
|        5359|   -6.206639|   -8.234641|    0.824246|    0.012120|
|        5360|   -6.209566|   -8.240021|    0.824246|    0.012120|
|        5361|   -6.212808|   -8.245429|    0.824246|    0.012120|
|        5362|   -6.216368|   -8.250869|    0.824246|    0.012120|
|        5363|   -6.220246|   -8.256342|    0.824246|    0.012120|
|        5364|   -6.224432|   -8.261847|    0.824246|    0.012120|
|        5365|   -6.228919|   -8.267385|    0.824246|    0.012120|
|        5366|   -6.233690|   -8.272955|    0.824246|    0.012120|
|        5367|   -6.238725|   -8.278554|    0.824246|    0.012120|
|        5368|   -6.243998|   -8.284179|    0.824246|    0.012120|
|        5369|   -6.249480|   -8.289829|    0.824246|    0.012120|
|        5370|   -6.255135|   -8.295500|    0.824246|    0.012120|
|        5371|   -6.260925|   -8.301189|    0.824246|    0.012120|
|        5372|   -6.266809|   -8.306893|    0.824246|    0.012120|
|        5373|   -6.272744|   -8.312607|    0.824245|    0.012120|
|        5374|   -6.278680|   -8.318326|    0.824245|    0.012120|
|        5375|   -6.284571|   -8.324043|    0.824245|    0.012120|
|        5376|   -6.290367|   -8.329753|    0.824245|    0.012120|
|        5377|   -6.296019|   -8.335456|    0.824245|    0.012120|
|        5378|   -6.301482|   -8.341145|    0.824245|    0.012120|
|        5379|   -6.306712|   -8.346823|    0.824245|    0.012120|
|        5380|   -6.311669|   -8.352489|    0.824245|    0.012120|
|        5381|   -6.316319|   -8.358148|    0.824245|    0.012119|
|        5382|   -6.320631|   -8.363800|    0.824245|    0.012119|
|        5383|   -6.324585|   -8.369448|    0.824245|    0.012119|
|        5384|   -6.328165|   -8.375094|    0.824245|    0.012119|
|        5385|   -6.331362|   -8.380737|    0.824245|    0.012119|
|        5386|   -6.334177|   -8.386375|    0.824245|    0.012119|
|        5387|   -6.336615|   -8.392007|    0.824245|    0.012119|
|        5388|   -6.338688|   -8.397628|    0.824245|    0.012119|
|        5389|   -6.340414|   -8.403230|    0.824245|    0.012119|
|        5390|   -6.341813|   -8.408807|    0.824245|    0.012119|
|        5391|   -6.342910|   -8.414348|    0.824245|    0.012119|
|        5392|   -6.343732|   -8.419841|    0.824245|    0.012118|
|        5393|   -6.344305|   -8.425272|    0.824246|    0.012118|
|        5394|   -6.344657|   -8.430625|    0.824246|    0.012118|
|        5395|   -6.344815|   -8.435883|    0.824246|    0.012118|
|        5396|   -6.344804|   -8.441025|    0.824246|    0.012118|
|        5397|   -6.344647|   -8.446031|    0.824246|    0.012118|
|        5398|   -6.344365|   -8.450879|    0.824246|    0.012118|
|        5399|   -6.343976|   -8.455548|    0.824246|    0.012118|
|        5400|   -6.343498|   -8.460016|    0.824246|    0.012118|
|        5401|   -6.342942|   -8.464261|    0.824247|    0.012118|
|        5402|   -6.342321|   -8.468265|    0.824247|    0.012117|
|        5403|   -6.341644|   -8.472009|    0.824247|    0.012117|
|        5404|   -6.340918|   -8.475479|    0.824247|    0.012117|
|        5405|   -6.340150|   -8.478664|    0.824247|    0.012117|
|        5406|   -6.339344|   -8.481556|    0.824247|    0.012117|
|        5407|   -6.338504|   -8.484151|    0.824247|    0.012117|
|        5408|   -6.337634|   -8.486450|    0.824248|    0.012117|
|        5409|   -6.336736|   -8.488457|    0.824248|    0.012117|
|        5410|   -6.335813|   -8.490180|    0.824248|    0.012117|
|        5411|   -6.334868|   -8.491631|    0.824248|    0.012117|
|        5412|   -6.333903|   -8.492824|    0.824248|    0.012117|
|        5413|   -6.332922|   -8.493778|    0.824248|    0.012116|
|        5414|   -6.331927|   -8.494510|    0.824249|    0.012116|
|        5415|   -6.330924|   -8.495042|    0.824249|    0.012116|
|        5416|   -6.329917|   -8.495394|    0.824249|    0.012116|
|        5417|   -6.328910|   -8.495588|    0.824249|    0.012116|
|        5418|   -6.327911|   -8.495642|    0.824249|    0.012116|
|        5419|   -6.326924|   -8.495578|    0.824249|    0.012116|
|        5420|   -6.325958|   -8.495411|    0.824249|    0.012116|
|        5421|   -6.325021|   -8.495160|    0.824249|    0.012116|
|        5422|   -6.324120|   -8.494837|    0.824250|    0.012116|
|        5423|   -6.323266|   -8.494456|    0.824250|    0.012116|
|        5424|   -6.322468|   -8.494028|    0.824250|    0.012116|
|        5425|   -6.321738|   -8.493561|    0.824250|    0.012116|
|        5426|   -6.321087|   -8.493063|    0.824250|    0.012116|
|        5427|   -6.320528|   -8.492541|    0.824250|    0.012116|
|        5428|   -6.320073|   -8.491998|    0.824250|    0.012116|
|        5429|   -6.319736|   -8.491440|    0.824250|    0.012116|
|        5430|   -6.319531|   -8.490871|    0.824250|    0.012116|
|        5431|   -6.319472|   -8.490293|    0.824250|    0.012116|
|        5432|   -6.319574|   -8.489710|    0.824250|    0.012116|
|        5433|   -6.319850|   -8.489127|    0.824251|    0.012116|
|        5434|   -6.320316|   -8.488546|    0.824251|    0.012116|
|        5435|   -6.320985|   -8.487971|    0.824251|    0.012116|
|        5436|   -6.321870|   -8.487408|    0.824251|    0.012116|
|        5437|   -6.322984|   -8.486862|    0.824251|    0.012116|
|        5438|   -6.324338|   -8.486337|    0.824251|    0.012116|
|        5439|   -6.325942|   -8.485833|    0.824251|    0.012116|
|        5440|   -6.327806|   -8.485353|    0.824251|    0.012116|
|        5441|   -6.329935|   -8.484906|    0.824251|    0.012116|
|        5442|   -6.332336|   -8.484500|    0.824251|    0.012116|
|        5443|   -6.335010|   -8.484140|    0.824251|    0.012116|
|        5444|   -6.337957|   -8.483833|    0.824251|    0.012116|
|        5445|   -6.341176|   -8.483586|    0.824251|    0.012116|
|        5446|   -6.344660|   -8.483402|    0.824251|    0.012116|
|        5447|   -6.348402|   -8.483286|    0.824251|    0.012117|
|        5448|   -6.352388|   -8.483242|    0.824251|    0.012117|
|        5449|   -6.356603|   -8.483273|    0.824251|    0.012117|
|        5450|   -6.361030|   -8.483381|    0.824251|    0.012117|
|        5451|   -6.365644|   -8.483567|    0.824251|    0.012117|
|        5452|   -6.370419|   -8.483833|    0.824250|    0.012117|
|        5453|   -6.375325|   -8.484178|    0.824250|    0.012117|
|        5454|   -6.380330|   -8.484601|    0.824250|    0.012117|
|        5455|   -6.385394|   -8.485103|    0.824250|    0.012117|
|        5456|   -6.390480|   -8.485680|    0.824250|    0.012117|
|        5457|   -6.395543|   -8.486332|    0.824250|    0.012117|
|        5458|   -6.400540|   -8.487054|    0.824250|    0.012117|
|        5459|   -6.405424|   -8.487844|    0.824250|    0.012117|
|        5460|   -6.410151|   -8.488699|    0.824250|    0.012117|
|        5461|   -6.414673|   -8.489613|    0.824250|    0.012118|
|        5462|   -6.418948|   -8.490584|    0.824250|    0.012118|
|        5463|   -6.422933|   -8.491606|    0.824249|    0.012118|
|        5464|   -6.426592|   -8.492674|    0.824249|    0.012118|
|        5465|   -6.429892|   -8.493784|    0.824249|    0.012118|
|        5466|   -6.432808|   -8.494929|    0.824249|    0.012118|
|        5467|   -6.435318|   -8.496106|    0.824249|    0.012118|
|        5468|   -6.437410|   -8.497308|    0.824249|    0.012118|
|        5469|   -6.439080|   -8.498530|    0.824249|    0.012118|
|        5470|   -6.440330|   -8.499765|    0.824249|    0.012118|
|        5471|   -6.441171|   -8.501007|    0.824248|    0.012118|
|        5472|   -6.441620|   -8.502250|    0.824248|    0.012118|
|        5473|   -6.441702|   -8.503487|    0.824248|    0.012118|
|        5474|   -6.441445|   -8.504711|    0.824248|    0.012118|
|        5475|   -6.440884|   -8.505915|    0.824248|    0.012118|
|        5476|   -6.440054|   -8.507092|    0.824248|    0.012118|
|        5477|   -6.438997|   -8.508235|    0.824247|    0.012118|
|        5478|   -6.437753|   -8.509334|    0.824247|    0.012118|
|        5479|   -6.436363|   -8.510384|    0.824247|    0.012119|
|        5480|   -6.434869|   -8.511375|    0.824247|    0.012119|
|        5481|   -6.433309|   -8.512300|    0.824247|    0.012119|
|        5482|   -6.431723|   -8.513151|    0.824247|    0.012119|
|        5483|   -6.430146|   -8.513922|    0.824246|    0.012119|
|        5484|   -6.428611|   -8.514605|    0.824246|    0.012119|
|        5485|   -6.427150|   -8.515194|    0.824246|    0.012119|
|        5486|   -6.425790|   -8.515682|    0.824246|    0.012119|
|        5487|   -6.424557|   -8.516064|    0.824246|    0.012119|
|        5488|   -6.423473|   -8.516336|    0.824246|    0.012119|
|        5489|   -6.422557|   -8.516492|    0.824246|    0.012119|
|        5490|   -6.421826|   -8.516531|    0.824245|    0.012119|
|        5491|   -6.421294|   -8.516449|    0.824245|    0.012119|
|        5492|   -6.420973|   -8.516244|    0.824245|    0.012119|
|        5493|   -6.420871|   -8.515916|    0.824245|    0.012119|
|        5494|   -6.420997|   -8.515464|    0.824245|    0.012118|
|        5495|   -6.421355|   -8.514888|    0.824245|    0.012118|
|        5496|   -6.421948|   -8.514190|    0.824245|    0.012118|
|        5497|   -6.422779|   -8.513372|    0.824245|    0.012118|
|        5498|   -6.423848|   -8.512435|    0.824245|    0.012118|
|        5499|   -6.425153|   -8.511381|    0.824245|    0.012104|
+-----------------------------------------------------------------------+
|Fixed CL Mode (Finite Difference)       |Value                         |
+-----------------------------------------------------------------------+
|Delta CL / Delta AoA                    |0.244416                      |
|Delta CD / Delta CL                     |0.0197767                     |
|Delta CMz / Delta CL                    |0.0109874                     |
+-----------------------------------------------------------------------+
Writing Flow Meta-Data file: flow.meta

----------------------------- Solver Exit -------------------------------

Maximum number of iterations reached (ITER = 5500) before convergence.
+-----------------------------------------------------------------------+
|      Convergence Field     |     Value    |   Criterion  |  Converged |
+-----------------------------------------------------------------------+
|                    rms[Rho]|      -6.42515|         < -12|          No|
+-----------------------------------------------------------------------+
-------------------------------------------------------------------------

--------------------------- Finalizing Solver ---------------------------
Deleted CNumerics container.
Deleted CIntegration container.
Deleted CSolver container.
Deleted CIteration container.
Deleted CInterface container.
Deleted CGeometry container.
Deleted CFreeFormDefBox class.
Deleted CSurfaceMovement class.
Deleted CVolumetricMovement class.
Deleted CConfig container.
Deleted nInst container.
Deleted COutput class.
-------------------------------------------------------------------------

------------------------- Exit Success (SU2_CFD) ------------------------


-------------------------------------------------------------------------
|    ___ _   _ ___                                                      |
|   / __| | | |_  )   Release 8.0.0 "Harrier"                           |
|   \__ \ |_| |/ /                                                      |
|   |___/\___//___|   Suite (Solution Exporting Code)                   |
|                                                                       |
-------------------------------------------------------------------------
| SU2 Project Website: https://su2code.github.io                        |
|                                                                       |
| The SU2 Project is maintained by the SU2 Foundation                   |
| (http://su2foundation.org)                                            |
-------------------------------------------------------------------------
| Copyright 2012-2023, SU2 Contributors                                 |
|                                                                       |
| SU2 is free software; you can redistribute it and/or                  |
| modify it under the terms of the GNU Lesser General Public            |
| License as published by the Free Software Foundation; either          |
| version 2.1 of the License, or (at your option) any later version.    |
|                                                                       |
| SU2 is distributed in the hope that it will be useful,                |
| but WITHOUT ANY WARRANTY; without even the implied warranty of        |
| MERCHANTABILITY or FITNESS FOR A PARTICULAR PURPOSE. See the GNU      |
| Lesser General Public License for more details.                       |
|                                                                       |
| You should have received a copy of the GNU Lesser General Public      |
| License along with SU2. If not, see <http://www.gnu.org/licenses/>.   |
-------------------------------------------------------------------------

----------------- Physical Case Definition ( Zone 0 ) -------------------
Input mesh file name: mesh_RAE2822_turb_deform.su2

-------------------- Output Information ( Zone 0 ) ----------------------
The tabular file format is CSV (.csv).
Flow variables file name: flow.

------------- Config File Boundary Information ( Zone 0 ) ---------------
+-----------------------------------------------------------------------+
|                        Marker Type|                        Marker Name|
+-----------------------------------------------------------------------+
|                          Far-field|                           FARFIELD|
+-----------------------------------------------------------------------+
|                     Heat flux wall|                            AIRFOIL|
+-----------------------------------------------------------------------+
Two dimensional problem.
13937 grid points before partitioning.
22842 volume elements before partitioning.
2 surface markers.
192 boundary elements in index 0 (Marker = AIRFOIL).
40 boundary elements in index 1 (Marker = FARFIELD).
Executing the partitioning functions.
Building the graph adjacency structure.
Calling ParMETIS... graph partitioning complete (831 edge cuts).
Distributing ParMETIS coloring.
Rebalancing vertices.
Rebalancing volume element connectivity.
Rebalancing markers and surface elements.
14875 vertices including ghost points. 
23674 interior elements including halo cells. 
18780 triangles.
4894 quadrilaterals.
Establishing MPI communication patterns.
Identify vertices.
Storing a mapping from global to local point index.

------------------------- Solution Postprocessing -----------------------
Reading and storing the solution from restart_flow.
Volume output fields: COORDINATES, SOLUTION
  Info: Ignoring the following screen output fields:
  RMS_DENSITY, RMS_NU_TILDE, LIFT, DRAG
Screen output fields: INNER_ITER
  Info: Ignoring the following history output groups:
  RMS_RES, AERO_COEFF
History output group(s): ITER
Warning: No (valid) fields chosen for convergence monitoring. Convergence monitoring inactive.
Warning: No (valid) fields chosen for time convergence monitoring. Time convergence monitoring inactive.
|Paraview                           |flow.vtu                           |
|Paraview surface                   |surface_flow.vtu                   |
|CSV file                           |surface_flow.csv                   |

------------------------- Finalize Solver -------------------------
Deleted CGeometry container.
Deleted CSolver class.
Deleted CConfig container.
Deleted COutput class.

Completed in 0.014966 seconds on 6 cores.

------------------------- Exit Success (SU2_SOL) ------------------------

