
-------------------------------------------------------------------------
|    ___ _   _ ___                                                      |
|   / __| | | |_  )   Release 8.0.0 "Harrier"                           |
|   \__ \ |_| |/ /                                                      |
|   |___/\___//___|   Suite (Computational Fluid Dynamics Code)         |
|                                                                       |
-------------------------------------------------------------------------
| SU2 Project Website: https://su2code.github.io                        |
|                                                                       |
| The SU2 Project is maintained by the SU2 Foundation                   |
| (http://su2foundation.org)                                            |
-------------------------------------------------------------------------
| Copyright 2012-2023, SU2 Contributors                                 |
|                                                                       |
| SU2 is free software; you can redistribute it and/or                  |
| modify it under the terms of the GNU Lesser General Public            |
| License as published by the Free Software Foundation; either          |
| version 2.1 of the License, or (at your option) any later version.    |
|                                                                       |
| SU2 is distributed in the hope that it will be useful,                |
| but WITHOUT ANY WARRANTY; without even the implied warranty of        |
| MERCHANTABILITY or FITNESS FOR A PARTICULAR PURPOSE. See the GNU      |
| Lesser General Public License for more details.                       |
|                                                                       |
| You should have received a copy of the GNU Lesser General Public      |
| License along with SU2. If not, see <http://www.gnu.org/licenses/>.   |
-------------------------------------------------------------------------

Parsing config file for zone 0

----------------- Physical Case Definition ( Zone 0 ) -------------------
Compressible RANS equations.
Turbulence model: Spalart-Allmaras-noft2
Hybrid RANS/LES: No Hybrid RANS/LES
Mach number: 0.734.
Angle of attack (AoA): 2.31 deg, and angle of sideslip (AoS): 0 deg.
Reynolds number: 6.5e+06. Reference length 1.
Fixed CL mode, target value: 0.824.
Reading and writing binary SU2 native restart files.
Read flow solution from: solution_flow.dat.
Dimensional simulation.
The reference area is 1 m^2.
The semi-span will be computed using the max y(3D) value.
The reference length is 1 m.
Reference origin for moment evaluation is (0.25, 0, 0).
Surface(s) where the force coefficients are evaluated: AIRFOIL.

Surface(s) plotted in the output file: AIRFOIL.
Surface(s) affected by the design variables: AIRFOIL.
Input mesh file name: mesh_RAE2822_turb_deform.su2

--------------- Space Numerical Integration ( Zone 0 ) ------------------
Jameson-Schmidt-Turkel scheme (2nd order in space) for the flow inviscid terms.
JST viscous coefficients (2nd & 4th): 0.5, 0.02.
The method includes a grid stretching correction (p = 0.3).
Scalar upwind solver for the turbulence model.
First order integration in space.
Average of gradients with correction (viscous flow terms).
Average of gradients with correction (viscous turbulence terms).
Gradient for viscous and source terms: inverse-distance weighted Least-Squares.

--------------- Time Numerical Integration  ( Zone 0 ) ------------------
Local time stepping (steady state simulation).
Euler implicit method for the flow equations.
FGMRES is used for solving the linear system.
Using a ILU(0) preconditioning.
Convergence criteria of the linear solver: 1e-06.
Max number of linear iterations: 10.
No CFL adaptation.
Courant-Friedrichs-Lewy number:       10
Euler implicit time integration for the turbulence model.

------------------ Convergence Criteria  ( Zone 0 ) ---------------------
Maximum number of solver subiterations: 5500.
Begin convergence monitoring at iteration 10.
Residual minimum value: 1e-12.
Cauchy series min. value: 1e-06.
Number of Cauchy elements: 100.
Begin windowed time average at iteration 0.

-------------------- Output Information ( Zone 0 ) ----------------------
File writing frequency: 
+------------------------------------+
|                     File| Frequency|
+------------------------------------+
|                  RESTART|     10000|
|                 PARAVIEW|     10000|
|         SURFACE_PARAVIEW|     10000|
|              SURFACE_CSV|     10000|
+------------------------------------+
Writing the convergence history file every 1 inner iterations.
Writing the screen convergence history every 1 inner iterations.
The tabular file format is CSV (.csv).
Convergence history file name: history_direct.
Forces breakdown file name: forces_breakdown.dat.
Surface file name: surface_flow.
Volume file name: flow.
Restart file name: restart_flow.dat.

------------- Config File Boundary Information ( Zone 0 ) ---------------
+-----------------------------------------------------------------------+
|                        Marker Type|                        Marker Name|
+-----------------------------------------------------------------------+
|                          Far-field|                           FARFIELD|
+-----------------------------------------------------------------------+
|                     Heat flux wall|                            AIRFOIL|
+-----------------------------------------------------------------------+

-------------------- Output Preprocessing ( Zone 0 ) --------------------

WARNING: SURFACE_PRESSURE_DROP can only be computed for at least 2 surfaces (outlet, inlet, ...)

Screen output fields: INNER_ITER, RMS_DENSITY, RMS_NU_TILDE, LIFT, DRAG
History output group(s): ITER, RMS_RES, AERO_COEFF
Convergence field(s): RMS_DENSITY
Warning: No (valid) fields chosen for time convergence monitoring. Time convergence monitoring inactive.
Volume output fields: COORDINATES, SOLUTION, PRIMITIVE

------------------- Geometry Preprocessing ( Zone 0 ) -------------------
Two dimensional problem.
13937 grid points before partitioning.
22842 volume elements before partitioning.
2 surface markers.
192 boundary elements in index 0 (Marker = AIRFOIL).
40 boundary elements in index 1 (Marker = FARFIELD).
Executing the partitioning functions.
Building the graph adjacency structure.
Calling ParMETIS... graph partitioning complete (831 edge cuts).
Distributing ParMETIS coloring.
Rebalancing vertices.
Rebalancing volume element connectivity.
Rebalancing markers and surface elements.
14875 vertices including ghost points. 
23674 interior elements including halo cells. 
18780 triangles.
4894 quadrilaterals.
Establishing MPI communication patterns.
Setting point connectivity.
Renumbering points (Reverse Cuthill McKee Ordering).
Recomputing point connectivity.
Setting element connectivity.
Checking the numerical grid orientation.
All volume elements are correctly orientend.
All surface elements are correctly orientend.
Identifying edges and vertices.
Setting the control volume structure.
Area of the computational grid: 32209.9.
Searching for the closest normal neighbors to the surfaces.
Storing a mapping from global to local point index.
Compute the surface curvature.
Max K: 159.388. Mean K: 7.33255. Standard deviation K: 21.788.
Checking for periodicity.
Computing mesh quality statistics for the dual control volumes.
+--------------------------------------------------------------+
|           Mesh Quality Metric|        Minimum|        Maximum|
+--------------------------------------------------------------+
|    Orthogonality Angle (deg.)|        75.2882|        89.9991|
|     CV Face Area Aspect Ratio|        1.00142|        3358.36|
|           CV Sub-Volume Ratio|        1.00062|        1211.11|
+--------------------------------------------------------------+
Finding max control volume width.
Communicating number of neighbors.
Wetted area = 2.02324 m.
Area projection in the x-plane = 0.123964 m, y-plane = 0.995873 m.
Max. coordinate in the x-direction = 1 m, y-direction = 0.0634978 m.
Min. coordinate in the x-direction = 0 m, y-direction = -0.0594037 m.
Computing wall distances.

-------------------- Solver Preprocessing ( Zone 0 ) --------------------
WARNING: AoA in the solution file (2.77839 deg.) +
         AoA offset in mesh file (0 deg.) = 2.77839 deg.
WARNING: SU2 will use the dCD/dCL provided in the direct solution file: 0.0201173.
WARNING: SU2 will use the dCMz/dCL provided in the direct solution file: 0.0313433.
Viscous flow: Computing pressure using the ideal gas law
based on the free-stream temperature and a density computed
from the Reynolds number.
Force coefficients computed using free-stream values.

-- Models:
+------------------------------------------------------------------------------+
|          Viscosity Model|        Conductivity Model|              Fluid Model|
+------------------------------------------------------------------------------+
|               SUTHERLAND|          CONSTANT_PRANDTL|             STANDARD_AIR|
+------------------------------------------------------------------------------+
-- Fluid properties:
+------------------------------------------------------------------------------+
|                  Name|    Dim. value|    Ref. value|      Unit|Non-dim. value|
+------------------------------------------------------------------------------+
|        Ref. Viscosity|     1.716e-05|             1|   N.s/m^2|     1.716e-05|
|      Sutherland Temp.|        273.15|             1|         K|        273.15|
|     Sutherland Const.|         110.4|             1|         K|         110.4|
+------------------------------------------------------------------------------+
|        Prandtl (Lam.)|             -|             -|         -|          0.71|
|       Prandtl (Turb.)|             -|             -|         -|           0.9|
+------------------------------------------------------------------------------+
|          Gas Constant|       287.058|             1|  N.m/kg.K|       287.058|
|      Spec. Heat Ratio|             -|             -|         -|           1.4|
+------------------------------------------------------------------------------+
-- Initial and free-stream conditions:
+------------------------------------------------------------------------------+
|                  Name|    Dim. value|    Ref. value|      Unit|Non-dim. value|
+------------------------------------------------------------------------------+
|       Static Pressure|         38515|             1|        Pa|         38515|
|               Density|      0.465631|             1|    kg/m^3|      0.465631|
|           Temperature|        288.15|             1|         K|        288.15|
|          Total Energy|        237984|             1|   m^2/s^2|        237984|
|            Velocity-X|       249.484|             1|       m/s|       249.484|
|            Velocity-Y|       12.1075|             1|       m/s|       12.1075|
|    Velocity Magnitude|       249.778|             1|       m/s|       249.778|
+------------------------------------------------------------------------------+
|             Viscosity|    1.7893e-05|             1|   N.s/m^2|    1.7893e-05|
|          Conductivity|             -|             1|   W/m^2.K|             -|
|     Turb. Kin. Energy|       233.959|             1|   m^2/s^2|       233.959|
|     Spec. Dissipation|        608834|             1|       1/s|        608834|
+------------------------------------------------------------------------------+
|           Mach Number|             -|             -|         -|         0.734|
|       Reynolds Number|             -|             -|         -|       6.5e+06|
+------------------------------------------------------------------------------+
Initialize Jacobian structure (Navier-Stokes). MG level: 0.
Initialize Jacobian structure (SA model).

------------------- Numerics Preprocessing ( Zone 0 ) -------------------

----------------- Integration Preprocessing ( Zone 0 ) ------------------

------------------- Iteration Preprocessing ( Zone 0 ) ------------------
Euler/Navier-Stokes/RANS fluid iteration.

------------------------------ Begin Solver -----------------------------

Simulation Run using the Single-zone Driver
WARNING: SU2 was not compiled for an AVX-capable architecture. Performance could be better,
         see https://su2code.github.io/docs_v7/Build-SU2-Linux-MacOS/#compiler-optimizations
+----------------------------------------------------------------+
|  Inner_Iter|    rms[Rho]|     rms[nu]|          CL|          CD|
+----------------------------------------------------------------+
|           0|   -4.722194|   -5.897314|    0.824128|    0.012151|
|           1|   -4.775786|   -5.981909|    0.824199|    0.012138|
|           2|   -4.831125|   -6.078629|    0.824221|    0.012125|
|           3|   -4.871082|   -6.186072|    0.824211|    0.012114|
|           4|   -4.898853|   -6.305258|    0.824187|    0.012106|
|           5|   -4.918668|   -6.431197|    0.824163|    0.012100|
|           6|   -4.932203|   -6.538646|    0.824146|    0.012099|
|           7|   -4.940756|   -6.585724|    0.824139|    0.012100|
|           8|   -4.945428|   -6.574185|    0.824138|    0.012103|
|           9|   -4.946197|   -6.547224|    0.824142|    0.012108|
|          10|   -4.942233|   -6.528949|    0.824146|    0.012114|
|          11|   -4.933216|   -6.520430|    0.824148|    0.012121|
|          12|   -4.920141|   -6.512620|    0.824147|    0.012129|
|          13|   -4.904949|   -6.495207|    0.824142|    0.012136|
|          14|   -4.889613|   -6.463976|    0.824132|    0.012143|
|          15|   -4.875446|   -6.422946|    0.824118|    0.012150|
|          16|   -4.862922|   -6.379716|    0.824099|    0.012156|
|          17|   -4.851867|   -6.340605|    0.824075|    0.012162|
|          18|   -4.841815|   -6.309305|    0.824047|    0.012166|
|          19|   -4.832379|   -6.287446|    0.824016|    0.012170|
|          20|   -4.823476|   -6.275350|    0.823982|    0.012173|
|          21|   -4.815354|   -6.272444|    0.823947|    0.012176|
|          22|   -4.808450|   -6.277398|    0.823912|    0.012177|
|          23|   -4.803171|   -6.288113|    0.823878|    0.012179|
|          24|   -4.799726|   -6.301730|    0.823847|    0.012180|
|          25|   -4.798054|   -6.314894|    0.823819|    0.012181|
|          26|   -4.797847|   -6.324451|    0.823796|    0.012182|
|          27|   -4.798636|   -6.328459|    0.823776|    0.012183|
|          28|   -4.799915|   -6.326899|    0.823760|    0.012184|
|          29|   -4.801237|   -6.321498|    0.823749|    0.012186|
|          30|   -4.802294|   -6.314813|    0.823740|    0.012187|
|          31|   -4.802934|   -6.309289|    0.823735|    0.012190|
|          32|   -4.803152|   -6.306737|    0.823731|    0.012192|
|          33|   -4.803037|   -6.308209|    0.823728|    0.012195|
|          34|   -4.802737|   -6.314087|    0.823725|    0.012197|
|          35|   -4.802405|   -6.324197|    0.823721|    0.012200|
|          36|   -4.802171|   -6.337918|    0.823717|    0.012203|
|          37|   -4.802131|   -6.354262|    0.823710|    0.012206|
|          38|   -4.802335|   -6.371962|    0.823701|    0.012209|
|          39|   -4.802797|   -6.389598|    0.823690|    0.012212|
|          40|   -4.803504|   -6.405783|    0.823676|    0.012214|
|          41|   -4.804430|   -6.419380|    0.823659|    0.012217|
|          42|   -4.805543|   -6.429696|    0.823640|    0.012219|
|          43|   -4.806817|   -6.436527|    0.823618|    0.012221|
|          44|   -4.808234|   -6.440119|    0.823595|    0.012222|
|          45|   -4.809785|   -6.440992|    0.823570|    0.012224|
|          46|   -4.811463|   -6.439748|    0.823543|    0.012225|
|          47|   -4.813264|   -6.436942|    0.823516|    0.012226|
|          48|   -4.815176|   -6.433029|    0.823487|    0.012226|
|          49|   -4.817183|   -6.428367|    0.823459|    0.012226|
|          50|   -4.819258|   -6.423246|    0.823431|    0.012226|
|          51|   -4.821365|   -6.417921|    0.823403|    0.012225|
|          52|   -4.823468|   -6.412636|    0.823375|    0.012224|
|          53|   -4.825528|   -6.407627|    0.823349|    0.012223|
|          54|   -4.827510|   -6.403120|    0.823323|    0.012221|
|          55|   -4.829391|   -6.399311|    0.823298|    0.012219|
|          56|   -4.831157|   -6.396355|    0.823275|    0.012217|
|          57|   -4.832808|   -6.394359|    0.823252|    0.012215|
|          58|   -4.834351|   -6.393376|    0.823230|    0.012212|
|          59|   -4.835801|   -6.393406|    0.823210|    0.012209|
|          60|   -4.837176|   -6.394397|    0.823190|    0.012205|
|          61|   -4.838494|   -6.396259|    0.823172|    0.012202|
|          62|   -4.839772|   -6.398869|    0.823154|    0.012198|
|          63|   -4.841022|   -6.402084|    0.823138|    0.012194|
|          64|   -4.842254|   -6.405755|    0.823122|    0.012189|
|          65|   -4.843477|   -6.409728|    0.823107|    0.012185|
|          66|   -4.844697|   -6.413864|    0.823092|    0.012180|
|          67|   -4.845922|   -6.418041|    0.823079|    0.012175|
|          68|   -4.847159|   -6.422154|    0.823066|    0.012170|
|          69|   -4.848422|   -6.426128|    0.823054|    0.012165|
|          70|   -4.849721|   -6.429914|    0.823042|    0.012160|
|          71|   -4.851070|   -6.433486|    0.823032|    0.012155|
|          72|   -4.852480|   -6.436838|    0.823022|    0.012150|
|          73|   -4.853961|   -6.439980|    0.823012|    0.012144|
|          74|   -4.855518|   -6.442932|    0.823003|    0.012139|
|          75|   -4.857152|   -6.445719|    0.822995|    0.012134|
|          76|   -4.858860|   -6.448371|    0.822988|    0.012129|
|          77|   -4.860631|   -6.450914|    0.822981|    0.012123|
|          78|   -4.862451|   -6.453375|    0.822974|    0.012118|
|          79|   -4.864301|   -6.455776|    0.822968|    0.012113|
|          80|   -4.866158|   -6.458136|    0.822963|    0.012109|
|          81|   -4.867998|   -6.460476|    0.822957|    0.012104|
|          82|   -4.869792|   -6.462811|    0.822952|    0.012099|
|          83|   -4.871516|   -6.465160|    0.822948|    0.012094|
|          84|   -4.873141|   -6.467537|    0.822943|    0.012090|
|          85|   -4.874645|   -6.469959|    0.822938|    0.012085|
|          86|   -4.876008|   -6.472445|    0.822934|    0.012081|
|          87|   -4.877212|   -6.475012|    0.822929|    0.012077|
|          88|   -4.878246|   -6.477674|    0.822924|    0.012073|
|          89|   -4.879105|   -6.480450|    0.822920|    0.012069|
|          90|   -4.879788|   -6.483354|    0.822915|    0.012065|
|          91|   -4.880302|   -6.486401|    0.822910|    0.012061|
|          92|   -4.880657|   -6.489607|    0.822905|    0.012057|
|          93|   -4.880871|   -6.492985|    0.822899|    0.012053|
|          94|   -4.880967|   -6.496545|    0.822894|    0.012049|
|          95|   -4.880969|   -6.500301|    0.822889|    0.012045|
|          96|   -4.880908|   -6.504263|    0.822884|    0.012042|
|          97|   -4.880814|   -6.508441|    0.822879|    0.012038|
|          98|   -4.880720|   -6.512845|    0.822874|    0.012035|
|          99|   -4.880655|   -6.517485|    0.822870|    0.012032|
|         100|   -4.880648|   -6.522374|    0.822865|    0.012029|
|         101|   -4.880721|   -6.527524|    0.822860|    0.012107|
+-----------------------------------------------------------------------+
|Fixed CL Mode                           |Value                         |
+-----------------------------------------------------------------------+
|Current CL                              |0.82286                       |
|Target CL                               |0.824                         |
|Previous AOA                            |2.77839                       |
|Changed AoA by                          |0.00567284                    |
+-----------------------------------------------------------------------+
+----------------------------------------------------------------+
|  Inner_Iter|    rms[Rho]|     rms[nu]|          CL|          CD|
+----------------------------------------------------------------+
|         102|   -2.439584|   -6.387520|    0.822857|    0.012104|
|         103|   -2.824239|   -6.454458|    0.822854|    0.012101|
|         104|   -3.069102|   -6.480827|    0.822852|    0.012099|
|         105|   -3.148679|   -6.498518|    0.822850|    0.012096|
|         106|   -3.202865|   -6.513558|    0.822848|    0.012094|
|         107|   -3.273145|   -6.527282|    0.822848|    0.012092|
|         108|   -3.360183|   -6.540150|    0.822848|    0.012090|
|         109|   -3.451230|   -6.552138|    0.822848|    0.012089|
|         110|   -3.529495|   -6.563499|    0.822849|    0.012088|
|         111|   -3.586291|   -6.574207|    0.822850|    0.012086|
|         112|   -3.623253|   -6.584253|    0.822852|    0.012085|
|         113|   -3.644415|   -6.593879|    0.822855|    0.012085|
|         114|   -3.653808|   -6.603453|    0.822857|    0.012084|
|         115|   -3.657414|   -6.613257|    0.822860|    0.012084|
|         116|   -3.661921|   -6.623391|    0.822863|    0.012084|
|         117|   -3.671793|   -6.633839|    0.822867|    0.012084|
|         118|   -3.688064|   -6.644567|    0.822870|    0.012085|
|         119|   -3.708901|   -6.655641|    0.822873|    0.012085|
|         120|   -3.731091|   -6.667216|    0.822877|    0.012086|
|         121|   -3.751890|   -6.679383|    0.822880|    0.012087|
|         122|   -3.770370|   -6.692235|    0.822884|    0.012088|
|         123|   -3.787374|   -6.705636|    0.822887|    0.012089|
|         124|   -3.804353|   -6.719360|    0.822890|    0.012091|
|         125|   -3.822219|   -6.733110|    0.822892|    0.012092|
|         126|   -3.840951|   -6.746630|    0.822895|    0.012094|
|         127|   -3.859818|   -6.759734|    0.822897|    0.012095|
|         128|   -3.877806|   -6.772282|    0.822899|    0.012097|
|         129|   -3.893969|   -6.784254|    0.822901|    0.012099|
|         130|   -3.907632|   -6.795677|    0.822903|    0.012101|
|         131|   -3.918523|   -6.806573|    0.822905|    0.012103|
|         132|   -3.926873|   -6.816863|    0.822906|    0.012105|
|         133|   -3.933418|   -6.826598|    0.822908|    0.012108|
|         134|   -3.939238|   -6.835886|    0.822910|    0.012110|
|         135|   -3.945483|   -6.844630|    0.822913|    0.012113|
|         136|   -3.953113|   -6.852639|    0.822915|    0.012115|
|         137|   -3.962731|   -6.859946|    0.822919|    0.012118|
|         138|   -3.974514|   -6.866537|    0.822922|    0.012120|
|         139|   -3.988215|   -6.872167|    0.822927|    0.012123|
|         140|   -4.003187|   -6.876702|    0.822932|    0.012126|
|         141|   -4.018474|   -6.880217|    0.822937|    0.012129|
|         142|   -4.032981|   -6.882723|    0.822944|    0.012132|
|         143|   -4.045738|   -6.884129|    0.822952|    0.012135|
|         144|   -4.056189|   -6.884443|    0.822961|    0.012138|
|         145|   -4.064380|   -6.883648|    0.822971|    0.012141|
|         146|   -4.070925|   -6.881879|    0.822982|    0.012144|
|         147|   -4.076787|   -6.879235|    0.822995|    0.012148|
|         148|   -4.082968|   -6.875776|    0.823009|    0.012151|
|         149|   -4.090276|   -6.871516|    0.823025|    0.012155|
|         150|   -4.099182|   -6.866524|    0.823042|    0.012159|
|         151|   -4.109796|   -6.860929|    0.823061|    0.012163|
|         152|   -4.121912|   -6.854898|    0.823082|    0.012167|
|         153|   -4.135088|   -6.848536|    0.823104|    0.012171|
|         154|   -4.148767|   -6.841997|    0.823129|    0.012175|
|         155|   -4.162395|   -6.835392|    0.823155|    0.012179|
|         156|   -4.175536|   -6.828943|    0.823183|    0.012183|
|         157|   -4.187947|   -6.822786|    0.823213|    0.012188|
|         158|   -4.199601|   -6.817064|    0.823245|    0.012192|
|         159|   -4.210650|   -6.811942|    0.823279|    0.012197|
|         160|   -4.221358|   -6.807538|    0.823314|    0.012202|
|         161|   -4.232011|   -6.804030|    0.823350|    0.012206|
|         162|   -4.242860|   -6.801539|    0.823388|    0.012211|
|         163|   -4.254078|   -6.800170|    0.823427|    0.012216|
|         164|   -4.265752|   -6.800052|    0.823467|    0.012220|
|         165|   -4.277896|   -6.801274|    0.823508|    0.012225|
|         166|   -4.290474|   -6.803926|    0.823549|    0.012229|
|         167|   -4.303426|   -6.808097|    0.823591|    0.012234|
|         168|   -4.316694|   -6.813862|    0.823632|    0.012238|
|         169|   -4.330226|   -6.821285|    0.823674|    0.012242|
|         170|   -4.343988|   -6.830396|    0.823714|    0.012246|
|         171|   -4.357957|   -6.841186|    0.823754|    0.012250|
|         172|   -4.372112|   -6.853613|    0.823793|    0.012254|
|         173|   -4.386420|   -6.867535|    0.823831|    0.012258|
|         174|   -4.400834|   -6.882737|    0.823867|    0.012261|
|         175|   -4.415283|   -6.898891|    0.823900|    0.012264|
|         176|   -4.429673|   -6.915516|    0.823932|    0.012267|
|         177|   -4.443889|   -6.931957|    0.823961|    0.012269|
|         178|   -4.457804|   -6.947359|    0.823988|    0.012271|
|         179|   -4.471279|   -6.960757|    0.824012|    0.012273|
|         180|   -4.484178|   -6.971110|    0.824033|    0.012275|
|         181|   -4.496371|   -6.977495|    0.824051|    0.012276|
|         182|   -4.507742|   -6.979449|    0.824066|    0.012277|
|         183|   -4.518196|   -6.976806|    0.824077|    0.012278|
|         184|   -4.527666|   -6.969765|    0.824086|    0.012278|
|         185|   -4.536113|   -6.959023|    0.824091|    0.012279|
|         186|   -4.543535|   -6.945531|    0.824093|    0.012279|
|         187|   -4.549959|   -6.930253|    0.824093|    0.012278|
|         188|   -4.555447|   -6.914147|    0.824089|    0.012278|
|         189|   -4.560088|   -6.898032|    0.824082|    0.012277|
|         190|   -4.563993|   -6.882563|    0.824073|    0.012276|
|         191|   -4.567284|   -6.868249|    0.824061|    0.012274|
|         192|   -4.570091|   -6.855462|    0.824046|    0.012273|
|         193|   -4.572544|   -6.844465|    0.824029|    0.012271|
|         194|   -4.574763|   -6.835444|    0.824011|    0.012269|
|         195|   -4.576859|   -6.828518|    0.823990|    0.012267|
|         196|   -4.578925|   -6.823784|    0.823968|    0.012265|
|         197|   -4.581040|   -6.821282|    0.823944|    0.012263|
|         198|   -4.583262|   -6.821038|    0.823919|    0.012260|
|         199|   -4.585634|   -6.823069|    0.823893|    0.012258|
|         200|   -4.588182|   -6.827380|    0.823866|    0.012255|
|         201|   -4.590917|   -6.833970|    0.823838|    0.012262|
+-----------------------------------------------------------------------+
|Fixed CL Mode                           |Value                         |
+-----------------------------------------------------------------------+
|Current CL                              |0.823838                      |
|Target CL                               |0.824                         |
|Previous AOA                            |2.78406                       |
|Changed AoA by                          |0.000671986                   |
+-----------------------------------------------------------------------+
+----------------------------------------------------------------+
|  Inner_Iter|    rms[Rho]|     rms[nu]|          CL|          CD|
+----------------------------------------------------------------+
|         202|   -3.364983|   -6.830049|    0.823809|    0.012259|
|         203|   -3.740805|   -6.846926|    0.823780|    0.012256|
|         204|   -3.962812|   -6.861917|    0.823751|    0.012253|
|         205|   -4.030574|   -6.878261|    0.823722|    0.012250|
|         206|   -4.078726|   -6.896357|    0.823693|    0.012247|
|         207|   -4.140430|   -6.916154|    0.823664|    0.012243|
|         208|   -4.213977|   -6.937452|    0.823636|    0.012240|
|         209|   -4.288058|   -6.959922|    0.823608|    0.012237|
|         210|   -4.351279|   -6.983106|    0.823581|    0.012234|
|         211|   -4.399782|   -7.006336|    0.823555|    0.012230|
|         212|   -4.435446|   -7.028761|    0.823529|    0.012227|
|         213|   -4.460131|   -7.049360|    0.823505|    0.012224|
|         214|   -4.475155|   -7.067015|    0.823482|    0.012221|
|         215|   -4.483511|   -7.080593|    0.823460|    0.012217|
|         216|   -4.489589|   -7.089166|    0.823440|    0.012214|
|         217|   -4.496975|   -7.092204|    0.823421|    0.012211|
|         218|   -4.507083|   -7.089749|    0.823404|    0.012208|
|         219|   -4.519374|   -7.082419|    0.823389|    0.012205|
|         220|   -4.532458|   -7.071232|    0.823375|    0.012203|
|         221|   -4.545246|   -7.057335|    0.823363|    0.012200|
|         222|   -4.557512|   -7.041781|    0.823353|    0.012197|
|         223|   -4.569656|   -7.025513|    0.823345|    0.012195|
|         224|   -4.582071|   -7.009312|    0.823338|    0.012193|
|         225|   -4.594682|   -6.993752|    0.823334|    0.012191|
|         226|   -4.606906|   -6.979231|    0.823331|    0.012189|
|         227|   -4.617940|   -6.966035|    0.823331|    0.012187|
|         228|   -4.627111|   -6.954377|    0.823332|    0.012185|
|         229|   -4.634105|   -6.944335|    0.823335|    0.012184|
|         230|   -4.639010|   -6.935944|    0.823339|    0.012182|
|         231|   -4.642230|   -6.929199|    0.823346|    0.012181|
|         232|   -4.644363|   -6.924070|    0.823354|    0.012180|
|         233|   -4.646066|   -6.920509|    0.823364|    0.012179|
|         234|   -4.647937|   -6.918436|    0.823375|    0.012178|
|         235|   -4.650413|   -6.917764|    0.823387|    0.012178|
|         236|   -4.653717|   -6.918394|    0.823401|    0.012177|
|         237|   -4.657842|   -6.920209|    0.823416|    0.012177|
|         238|   -4.662590|   -6.923069|    0.823432|    0.012177|
|         239|   -4.667617|   -6.926841|    0.823448|    0.012177|
|         240|   -4.672515|   -6.931357|    0.823466|    0.012177|
|         241|   -4.676885|   -6.936448|    0.823484|    0.012177|
|         242|   -4.680415|   -6.941934|    0.823503|    0.012177|
|         243|   -4.682950|   -6.947636|    0.823522|    0.012177|
|         244|   -4.684516|   -6.953373|    0.823541|    0.012178|
|         245|   -4.685308|   -6.958971|    0.823560|    0.012178|
|         246|   -4.685629|   -6.964275|    0.823580|    0.012179|
|         247|   -4.685812|   -6.969149|    0.823599|    0.012179|
|         248|   -4.686149|   -6.973483|    0.823618|    0.012180|
|         249|   -4.686842|   -6.977206|    0.823637|    0.012180|
|         250|   -4.687987|   -6.980285|    0.823656|    0.012181|
|         251|   -4.689581|   -6.982720|    0.823674|    0.012181|
|         252|   -4.691554|   -6.984551|    0.823692|    0.012182|
|         253|   -4.693804|   -6.985839|    0.823709|    0.012183|
|         254|   -4.696228|   -6.986663|    0.823726|    0.012183|
|         255|   -4.698747|   -6.987100|    0.823742|    0.012184|
|         256|   -4.701326|   -6.987233|    0.823758|    0.012184|
|         257|   -4.703965|   -6.987136|    0.823773|    0.012185|
|         258|   -4.706700|   -6.986869|    0.823788|    0.012185|
|         259|   -4.709581|   -6.986475|    0.823802|    0.012186|
|         260|   -4.712658|   -6.985978|    0.823815|    0.012186|
|         261|   -4.715974|   -6.985389|    0.823828|    0.012187|
|         262|   -4.719551|   -6.984696|    0.823840|    0.012187|
|         263|   -4.723388|   -6.983872|    0.823852|    0.012187|
|         264|   -4.727469|   -6.982875|    0.823864|    0.012188|
|         265|   -4.731757|   -6.981659|    0.823875|    0.012188|
|         266|   -4.736208|   -6.980183|    0.823885|    0.012189|
|         267|   -4.740767|   -6.978422|    0.823895|    0.012189|
|         268|   -4.745380|   -6.976363|    0.823905|    0.012189|
|         269|   -4.749985|   -6.974019|    0.823915|    0.012190|
|         270|   -4.754522|   -6.971422|    0.823924|    0.012190|
|         271|   -4.758929|   -6.968624|    0.823933|    0.012191|
|         272|   -4.763140|   -6.965699|    0.823942|    0.012191|
|         273|   -4.767088|   -6.962739|    0.823951|    0.012192|
|         274|   -4.770704|   -6.959845|    0.823959|    0.012192|
|         275|   -4.773922|   -6.957124|    0.823967|    0.012193|
|         276|   -4.776678|   -6.954685|    0.823975|    0.012193|
|         277|   -4.778913|   -6.952629|    0.823983|    0.012194|
|         278|   -4.780581|   -6.951056|    0.823990|    0.012195|
|         279|   -4.781644|   -6.950037|    0.823998|    0.012196|
|         280|   -4.782079|   -6.949635|    0.824005|    0.012196|
|         281|   -4.781880|   -6.949893|    0.824011|    0.012197|
|         282|   -4.781054|   -6.950834|    0.824018|    0.012198|
|         283|   -4.779627|   -6.952455|    0.824024|    0.012199|
|         284|   -4.777633|   -6.954732|    0.824030|    0.012200|
|         285|   -4.775125|   -6.957618|    0.824036|    0.012201|
|         286|   -4.772159|   -6.961042|    0.824041|    0.012202|
|         287|   -4.768804|   -6.964912|    0.824046|    0.012203|
|         288|   -4.765131|   -6.969117|    0.824050|    0.012204|
|         289|   -4.761213|   -6.973528|    0.824054|    0.012205|
|         290|   -4.757125|   -6.978010|    0.824058|    0.012206|
|         291|   -4.752937|   -6.982416|    0.824061|    0.012207|
|         292|   -4.748719|   -6.986595|    0.824064|    0.012208|
|         293|   -4.744535|   -6.990415|    0.824066|    0.012209|
|         294|   -4.740444|   -6.993757|    0.824068|    0.012210|
|         295|   -4.736498|   -6.996531|    0.824070|    0.012211|
|         296|   -4.732747|   -6.998677|    0.824070|    0.012212|
|         297|   -4.729231|   -7.000174|    0.824071|    0.012213|
|         298|   -4.725987|   -7.001035|    0.824071|    0.012214|
|         299|   -4.723044|   -7.001307|    0.824070|    0.012215|
|         300|   -4.720429|   -7.001062|    0.824069|    0.012216|
|         301|   -4.718161|   -7.000387|    0.824068|    0.012211|
+-----------------------------------------------------------------------+
|Fixed CL Mode                           |Value                         |
+-----------------------------------------------------------------------+
|Current CL                              |0.824068                      |
|Target CL                               |0.824                         |
|Previous AOA                            |2.78473                       |
|Changed AoA by                          |-0.000346395                  |
+-----------------------------------------------------------------------+
+----------------------------------------------------------------+
|  Inner_Iter|    rms[Rho]|     rms[nu]|          CL|          CD|
+----------------------------------------------------------------+
|         302|   -3.652179|   -6.993284|    0.824066|    0.012212|
|         303|   -4.033092|   -6.995445|    0.824064|    0.012212|
|         304|   -4.273703|   -6.995070|    0.824062|    0.012213|
|         305|   -4.350737|   -6.994168|    0.824059|    0.012213|
|         306|   -4.397183|   -6.993127|    0.824056|    0.012213|
|         307|   -4.451034|   -6.992091|    0.824053|    0.012214|
|         308|   -4.509531|   -6.991138|    0.824050|    0.012214|
|         309|   -4.559402|   -6.990318|    0.824046|    0.012214|
|         310|   -4.591535|   -6.989648|    0.824043|    0.012213|
|         311|   -4.608059|   -6.989130|    0.824039|    0.012213|
|         312|   -4.615658|   -6.988750|    0.824036|    0.012213|
|         313|   -4.618871|   -6.988495|    0.824032|    0.012212|
|         314|   -4.620123|   -6.988345|    0.824029|    0.012212|
|         315|   -4.621388|   -6.988270|    0.824026|    0.012211|
|         316|   -4.624421|   -6.988236|    0.824023|    0.012211|
|         317|   -4.630167|   -6.988207|    0.824020|    0.012210|
|         318|   -4.638434|   -6.988157|    0.824018|    0.012209|
|         319|   -4.648160|   -6.988074|    0.824016|    0.012208|
|         320|   -4.658044|   -6.987954|    0.824014|    0.012207|
|         321|   -4.667199|   -6.987812|    0.824012|    0.012206|
|         322|   -4.675439|   -6.987667|    0.824011|    0.012205|
|         323|   -4.683104|   -6.987547|    0.824011|    0.012204|
|         324|   -4.690676|   -6.987488|    0.824011|    0.012203|
|         325|   -4.698471|   -6.987533|    0.824011|    0.012202|
|         326|   -4.706552|   -6.987730|    0.824011|    0.012201|
|         327|   -4.714795|   -6.988131|    0.824012|    0.012200|
|         328|   -4.722998|   -6.988785|    0.824013|    0.012198|
|         329|   -4.730948|   -6.989734|    0.824015|    0.012197|
|         330|   -4.738464|   -6.991017|    0.824017|    0.012196|
|         331|   -4.745423|   -6.992663|    0.824020|    0.012195|
|         332|   -4.751786|   -6.994694|    0.824022|    0.012194|
|         333|   -4.757612|   -6.997124|    0.824025|    0.012193|
|         334|   -4.763046|   -6.999949|    0.824029|    0.012192|
|         335|   -4.768271|   -7.003158|    0.824032|    0.012191|
|         336|   -4.773458|   -7.006728|    0.824036|    0.012189|
|         337|   -4.778721|   -7.010627|    0.824040|    0.012188|
|         338|   -4.784092|   -7.014817|    0.824044|    0.012187|
|         339|   -4.789518|   -7.019252|    0.824048|    0.012186|
|         340|   -4.794870|   -7.023884|    0.824053|    0.012186|
|         341|   -4.799978|   -7.028662|    0.824057|    0.012185|
|         342|   -4.804665|   -7.033533|    0.824061|    0.012184|
|         343|   -4.808788|   -7.038448|    0.824066|    0.012183|
|         344|   -4.812268|   -7.043361|    0.824070|    0.012182|
|         345|   -4.815105|   -7.048230|    0.824074|    0.012181|
|         346|   -4.817363|   -7.053025|    0.824079|    0.012181|
|         347|   -4.819146|   -7.057721|    0.824083|    0.012180|
|         348|   -4.820564|   -7.062300|    0.824087|    0.012179|
|         349|   -4.821701|   -7.066755|    0.824091|    0.012179|
|         350|   -4.822606|   -7.071090|    0.824094|    0.012178|
|         351|   -4.823286|   -7.075315|    0.824098|    0.012177|
|         352|   -4.823718|   -7.079450|    0.824101|    0.012177|
|         353|   -4.823867|   -7.083525|    0.824105|    0.012176|
|         354|   -4.823700|   -7.087570|    0.824108|    0.012176|
|         355|   -4.823204|   -7.091622|    0.824111|    0.012175|
|         356|   -4.822390|   -7.095720|    0.824113|    0.012175|
|         357|   -4.821293|   -7.099903|    0.824116|    0.012174|
|         358|   -4.819968|   -7.104207|    0.824118|    0.012174|
|         359|   -4.818483|   -7.108669|    0.824120|    0.012173|
|         360|   -4.816910|   -7.113318|    0.824122|    0.012173|
|         361|   -4.815317|   -7.118181|    0.824124|    0.012173|
|         362|   -4.813767|   -7.123279|    0.824126|    0.012172|
|         363|   -4.812313|   -7.128626|    0.824128|    0.012172|
|         364|   -4.811002|   -7.134229|    0.824129|    0.012171|
|         365|   -4.809875|   -7.140089|    0.824131|    0.012171|
|         366|   -4.808966|   -7.146201|    0.824132|    0.012171|
|         367|   -4.808307|   -7.152551|    0.824134|    0.012171|
|         368|   -4.807929|   -7.159120|    0.824135|    0.012170|
|         369|   -4.807860|   -7.165882|    0.824136|    0.012170|
|         370|   -4.808125|   -7.172806|    0.824138|    0.012170|
|         371|   -4.808749|   -7.179853|    0.824139|    0.012169|
|         372|   -4.809753|   -7.186983|    0.824141|    0.012169|
|         373|   -4.811156|   -7.194151|    0.824142|    0.012169|
|         374|   -4.812972|   -7.201308|    0.824143|    0.012169|
|         375|   -4.815216|   -7.208406|    0.824145|    0.012169|
|         376|   -4.817896|   -7.215397|    0.824147|    0.012169|
|         377|   -4.821020|   -7.222232|    0.824148|    0.012169|
|         378|   -4.824590|   -7.228868|    0.824150|    0.012169|
|         379|   -4.828608|   -7.235260|    0.824152|    0.012168|
|         380|   -4.833070|   -7.241372|    0.824154|    0.012168|
|         381|   -4.837973|   -7.247171|    0.824156|    0.012168|
|         382|   -4.843305|   -7.252629|    0.824158|    0.012168|
|         383|   -4.849054|   -7.257731|    0.824160|    0.012168|
|         384|   -4.855203|   -7.262466|    0.824163|    0.012169|
|         385|   -4.861728|   -7.266835|    0.824165|    0.012169|
|         386|   -4.868605|   -7.270846|    0.824167|    0.012169|
|         387|   -4.875801|   -7.274518|    0.824169|    0.012169|
|         388|   -4.883280|   -7.277871|    0.824172|    0.012169|
|         389|   -4.891000|   -7.280927|    0.824174|    0.012169|
|         390|   -4.898914|   -7.283714|    0.824176|    0.012169|
|         391|   -4.906969|   -7.286259|    0.824178|    0.012169|
|         392|   -4.915109|   -7.288592|    0.824180|    0.012169|
|         393|   -4.923271|   -7.290742|    0.824183|    0.012169|
|         394|   -4.931391|   -7.292738|    0.824185|    0.012170|
|         395|   -4.939398|   -7.294603|    0.824186|    0.012170|
|         396|   -4.947223|   -7.296360|    0.824188|    0.012170|
|         397|   -4.954794|   -7.298029|    0.824190|    0.012170|
|         398|   -4.962042|   -7.299628|    0.824192|    0.012170|
|         399|   -4.968900|   -7.301171|    0.824193|    0.012170|
|         400|   -4.975307|   -7.302671|    0.824195|    0.012171|
|         401|   -4.981210|   -7.304137|    0.824196|    0.012157|
+-----------------------------------------------------------------------+
|Fixed CL Mode                           |Value                         |
+-----------------------------------------------------------------------+
|Current CL                              |0.824196                      |
|Target CL                               |0.824                         |
|Previous AOA                            |2.78439                       |
|Changed AoA by                          |-0.000973352                  |
+-----------------------------------------------------------------------+
+----------------------------------------------------------------+
|  Inner_Iter|    rms[Rho]|     rms[nu]|          CL|          CD|
+----------------------------------------------------------------+
|         402|   -3.205020|   -7.156977|    0.824197|    0.012157|
|         403|   -3.589143|   -7.222265|    0.824199|    0.012157|
|         404|   -3.833216|   -7.245882|    0.824200|    0.012157|
|         405|   -3.912922|   -7.259853|    0.824201|    0.012158|
|         406|   -3.967304|   -7.270261|    0.824202|    0.012158|
|         407|   -4.037413|   -7.278606|    0.824202|    0.012158|
|         408|   -4.123725|   -7.285365|    0.824203|    0.012158|
|         409|   -4.213293|   -7.290842|    0.824204|    0.012158|
|         410|   -4.289357|   -7.295238|    0.824205|    0.012159|
|         411|   -4.343660|   -7.298644|    0.824205|    0.012159|
|         412|   -4.378341|   -7.301172|    0.824206|    0.012159|
|         413|   -4.397786|   -7.303109|    0.824206|    0.012159|
|         414|   -4.406153|   -7.304825|    0.824207|    0.012160|
|         415|   -4.409205|   -7.306598|    0.824207|    0.012160|
|         416|   -4.413215|   -7.308538|    0.824208|    0.012160|
|         417|   -4.422293|   -7.310643|    0.824208|    0.012160|
|         418|   -4.437300|   -7.312912|    0.824208|    0.012161|
|         419|   -4.456408|   -7.315383|    0.824209|    0.012161|
|         420|   -4.476565|   -7.318131|    0.824209|    0.012161|
|         421|   -4.495253|   -7.321217|    0.824209|    0.012161|
|         422|   -4.511688|   -7.324648|    0.824210|    0.012162|
|         423|   -4.526703|   -7.328377|    0.824210|    0.012162|
|         424|   -4.541632|   -7.332323|    0.824210|    0.012162|
|         425|   -4.557291|   -7.336423|    0.824211|    0.012163|
|         426|   -4.573649|   -7.340604|    0.824211|    0.012163|
|         427|   -4.590059|   -7.344817|    0.824211|    0.012163|
|         428|   -4.605654|   -7.349027|    0.824211|    0.012163|
|         429|   -4.619653|   -7.353216|    0.824211|    0.012164|
|         430|   -4.631518|   -7.357378|    0.824212|    0.012164|
|         431|   -4.641050|   -7.361502|    0.824212|    0.012164|
|         432|   -4.648458|   -7.365590|    0.824212|    0.012165|
|         433|   -4.654356|   -7.369645|    0.824212|    0.012165|
|         434|   -4.659630|   -7.373659|    0.824212|    0.012165|
|         435|   -4.665223|   -7.377617|    0.824212|    0.012166|
|         436|   -4.671919|   -7.381495|    0.824212|    0.012166|
|         437|   -4.680206|   -7.385271|    0.824211|    0.012166|
|         438|   -4.690219|   -7.388916|    0.824211|    0.012166|
|         439|   -4.701741|   -7.392393|    0.824211|    0.012167|
|         440|   -4.714246|   -7.395679|    0.824210|    0.012167|
|         441|   -4.726984|   -7.398734|    0.824209|    0.012167|
|         442|   -4.739132|   -7.401541|    0.824209|    0.012167|
|         443|   -4.749991|   -7.404091|    0.824208|    0.012167|
|         444|   -4.759187|   -7.406382|    0.824207|    0.012168|
|         445|   -4.766789|   -7.408423|    0.824205|    0.012168|
|         446|   -4.773269|   -7.410226|    0.824204|    0.012168|
|         447|   -4.779343|   -7.411800|    0.824203|    0.012168|
|         448|   -4.785757|   -7.413156|    0.824201|    0.012168|
|         449|   -4.793110|   -7.414314|    0.824199|    0.012168|
|         450|   -4.801755|   -7.415300|    0.824197|    0.012169|
|         451|   -4.811766|   -7.416097|    0.824194|    0.012169|
|         452|   -4.822978|   -7.416724|    0.824192|    0.012169|
|         453|   -4.835054|   -7.417240|    0.824189|    0.012169|
|         454|   -4.847573|   -7.417632|    0.824186|    0.012169|
|         455|   -4.860124|   -7.417926|    0.824183|    0.012169|
|         456|   -4.872392|   -7.418157|    0.824179|    0.012169|
|         457|   -4.884200|   -7.418363|    0.824175|    0.012169|
|         458|   -4.895530|   -7.418593|    0.824171|    0.012169|
|         459|   -4.906486|   -7.418905|    0.824167|    0.012169|
|         460|   -4.917249|   -7.419364|    0.824162|    0.012169|
|         461|   -4.928013|   -7.420036|    0.824157|    0.012168|
|         462|   -4.938944|   -7.421003|    0.824152|    0.012168|
|         463|   -4.950149|   -7.422348|    0.824146|    0.012168|
|         464|   -4.961669|   -7.424149|    0.824141|    0.012168|
|         465|   -4.973492|   -7.426478|    0.824135|    0.012168|
|         466|   -4.985565|   -7.429406|    0.824130|    0.012168|
|         467|   -4.997814|   -7.432989|    0.824124|    0.012167|
|         468|   -5.010162|   -7.437274|    0.824118|    0.012167|
|         469|   -5.022539|   -7.442306|    0.824112|    0.012167|
|         470|   -5.034881|   -7.448106|    0.824106|    0.012167|
|         471|   -5.047130|   -7.454679|    0.824101|    0.012166|
|         472|   -5.059229|   -7.462010|    0.824095|    0.012166|
|         473|   -5.071115|   -7.470060|    0.824090|    0.012166|
|         474|   -5.082716|   -7.478759|    0.824085|    0.012165|
|         475|   -5.093951|   -7.488007|    0.824080|    0.012165|
|         476|   -5.104730|   -7.497668|    0.824076|    0.012165|
|         477|   -5.114964|   -7.507565|    0.824072|    0.012164|
|         478|   -5.124571|   -7.517487|    0.824069|    0.012164|
|         479|   -5.133482|   -7.527195|    0.824066|    0.012164|
|         480|   -5.141645|   -7.536424|    0.824063|    0.012163|
|         481|   -5.149034|   -7.544904|    0.824061|    0.012163|
|         482|   -5.155647|   -7.552369|    0.824059|    0.012163|
|         483|   -5.161506|   -7.558593|    0.824058|    0.012162|
|         484|   -5.166657|   -7.563414|    0.824058|    0.012162|
|         485|   -5.171163|   -7.566738|    0.824058|    0.012162|
|         486|   -5.175105|   -7.568562|    0.824059|    0.012161|
|         487|   -5.178574|   -7.568973|    0.824060|    0.012161|
|         488|   -5.181666|   -7.568146|    0.824061|    0.012160|
|         489|   -5.184483|   -7.566321|    0.824064|    0.012160|
|         490|   -5.187124|   -7.563783|    0.824066|    0.012160|
|         491|   -5.189686|   -7.560837|    0.824069|    0.012159|
|         492|   -5.192259|   -7.557788|    0.824073|    0.012159|
|         493|   -5.194925|   -7.554925|    0.824077|    0.012158|
|         494|   -5.197755|   -7.552509|    0.824081|    0.012158|
|         495|   -5.200813|   -7.550769|    0.824086|    0.012158|
|         496|   -5.204149|   -7.549890|    0.824091|    0.012157|
|         497|   -5.207805|   -7.550022|    0.824097|    0.012157|
|         498|   -5.211811|   -7.551272|    0.824102|    0.012156|
|         499|   -5.216189|   -7.553710|    0.824108|    0.012156|
|         500|   -5.220950|   -7.557367|    0.824114|    0.012155|
|         501|   -5.226097|   -7.562230|    0.824120|    0.012147|
+-----------------------------------------------------------------------+
|Fixed CL Mode                           |Value                         |
+-----------------------------------------------------------------------+
|Current CL                              |0.82412                       |
|Target CL                               |0.824                         |
|Previous AOA                            |2.78341                       |
|Changed AoA by                          |-0.000569273                  |
+-----------------------------------------------------------------------+
+----------------------------------------------------------------+
|  Inner_Iter|    rms[Rho]|     rms[nu]|          CL|          CD|
+----------------------------------------------------------------+
|         502|   -3.437912|   -7.401247|    0.824126|    0.012146|
|         503|   -3.820774|   -7.474195|    0.824133|    0.012146|
|         504|   -4.060922|   -7.504775|    0.824139|    0.012145|
|         505|   -4.138541|   -7.526292|    0.824146|    0.012145|
|         506|   -4.192424|   -7.544970|    0.824152|    0.012144|
|         507|   -4.262268|   -7.562092|    0.824158|    0.012144|
|         508|   -4.348443|   -7.577746|    0.824165|    0.012143|
|         509|   -4.438676|   -7.591754|    0.824171|    0.012143|
|         510|   -4.517162|   -7.603789|    0.824177|    0.012142|
|         511|   -4.575752|   -7.613355|    0.824183|    0.012142|
|         512|   -4.615578|   -7.620065|    0.824189|    0.012141|
|         513|   -4.639743|   -7.623898|    0.824195|    0.012141|
|         514|   -4.651498|   -7.625145|    0.824200|    0.012140|
|         515|   -4.656502|   -7.624132|    0.824205|    0.012140|
|         516|   -4.661559|   -7.621075|    0.824210|    0.012139|
|         517|   -4.671420|   -7.616166|    0.824215|    0.012139|
|         518|   -4.687378|   -7.609692|    0.824219|    0.012139|
|         519|   -4.707811|   -7.602048|    0.824223|    0.012138|
|         520|   -4.729701|   -7.593694|    0.824227|    0.012138|
|         521|   -4.750477|   -7.585028|    0.824231|    0.012137|
|         522|   -4.769301|   -7.576337|    0.824234|    0.012137|
|         523|   -4.786991|   -7.567805|    0.824237|    0.012137|
|         524|   -4.804880|   -7.559553|    0.824240|    0.012136|
|         525|   -4.823716|   -7.551661|    0.824242|    0.012136|
|         526|   -4.843292|   -7.544194|    0.824244|    0.012136|
|         527|   -4.862686|   -7.537223|    0.824245|    0.012135|
|         528|   -4.880738|   -7.530799|    0.824247|    0.012135|
|         529|   -4.896437|   -7.524960|    0.824248|    0.012135|
|         530|   -4.909149|   -7.519722|    0.824248|    0.012135|
|         531|   -4.918734|   -7.515084|    0.824249|    0.012134|
|         532|   -4.925596|   -7.511028|    0.824249|    0.012134|
|         533|   -4.930617|   -7.507517|    0.824248|    0.012134|
|         534|   -4.934947|   -7.504493|    0.824248|    0.012134|
|         535|   -4.939724|   -7.501883|    0.824247|    0.012134|
|         536|   -4.945823|   -7.499599|    0.824246|    0.012134|
|         537|   -4.953725|   -7.497554|    0.824245|    0.012134|
|         538|   -4.963474|   -7.495658|    0.824243|    0.012134|
|         539|   -4.974700|   -7.493830|    0.824242|    0.012134|
|         540|   -4.986682|   -7.492003|    0.824240|    0.012134|
|         541|   -4.998464|   -7.490124|    0.824238|    0.012134|
|         542|   -5.009047|   -7.488156|    0.824236|    0.012134|
|         543|   -5.017652|   -7.486074|    0.824233|    0.012134|
|         544|   -5.023950|   -7.483872|    0.824231|    0.012134|
|         545|   -5.028170|   -7.481557|    0.824228|    0.012134|
|         546|   -5.031001|   -7.479145|    0.824225|    0.012135|
|         547|   -5.033357|   -7.476659|    0.824222|    0.012135|
|         548|   -5.036118|   -7.474127|    0.824219|    0.012135|
|         549|   -5.039935|   -7.471573|    0.824216|    0.012136|
|         550|   -5.045151|   -7.469019|    0.824213|    0.012136|
|         551|   -5.051803|   -7.466486|    0.824210|    0.012137|
|         552|   -5.059675|   -7.463989|    0.824206|    0.012137|
|         553|   -5.068397|   -7.461543|    0.824203|    0.012138|
|         554|   -5.077541|   -7.459151|    0.824199|    0.012138|
|         555|   -5.086719|   -7.456798|    0.824195|    0.012139|
|         556|   -5.095665|   -7.454466|    0.824191|    0.012139|
|         557|   -5.104264|   -7.452136|    0.824187|    0.012140|
|         558|   -5.112555|   -7.449786|    0.824183|    0.012141|
|         559|   -5.120690|   -7.447398|    0.824179|    0.012141|
|         560|   -5.128880|   -7.444951|    0.824174|    0.012142|
|         561|   -5.137337|   -7.442431|    0.824170|    0.012143|
|         562|   -5.146236|   -7.439828|    0.824165|    0.012144|
|         563|   -5.155695|   -7.437145|    0.824161|    0.012144|
|         564|   -5.165773|   -7.434390|    0.824156|    0.012145|
|         565|   -5.176480|   -7.431585|    0.824151|    0.012146|
|         566|   -5.187794|   -7.428758|    0.824146|    0.012147|
|         567|   -5.199681|   -7.425946|    0.824141|    0.012148|
|         568|   -5.212105|   -7.423196|    0.824136|    0.012148|
|         569|   -5.225036|   -7.420558|    0.824131|    0.012149|
|         570|   -5.238451|   -7.418085|    0.824126|    0.012150|
|         571|   -5.252331|   -7.415834|    0.824121|    0.012151|
|         572|   -5.266650|   -7.413853|    0.824116|    0.012151|
|         573|   -5.281371|   -7.412189|    0.824111|    0.012152|
|         574|   -5.296436|   -7.410877|    0.824106|    0.012153|
|         575|   -5.311763|   -7.409942|    0.824101|    0.012154|
|         576|   -5.327244|   -7.409395|    0.824097|    0.012154|
|         577|   -5.342744|   -7.409236|    0.824092|    0.012155|
|         578|   -5.358102|   -7.409451|    0.824088|    0.012156|
|         579|   -5.373138|   -7.410012|    0.824084|    0.012157|
|         580|   -5.387659|   -7.410875|    0.824080|    0.012157|
|         581|   -5.401466|   -7.411984|    0.824077|    0.012158|
|         582|   -5.414362|   -7.413273|    0.824074|    0.012158|
|         583|   -5.426166|   -7.414665|    0.824071|    0.012159|
|         584|   -5.436720|   -7.416078|    0.824068|    0.012160|
|         585|   -5.445906|   -7.417427|    0.824065|    0.012160|
|         586|   -5.453650|   -7.418628|    0.824063|    0.012161|
|         587|   -5.459929|   -7.419606|    0.824062|    0.012161|
|         588|   -5.464775|   -7.420294|    0.824060|    0.012161|
|         589|   -5.468270|   -7.420640|    0.824059|    0.012162|
|         590|   -5.470536|   -7.420610|    0.824058|    0.012162|
|         591|   -5.471729|   -7.420191|    0.824058|    0.012162|
|         592|   -5.472024|   -7.419389|    0.824057|    0.012163|
|         593|   -5.471605|   -7.418230|    0.824058|    0.012163|
|         594|   -5.470652|   -7.416756|    0.824058|    0.012163|
|         595|   -5.469339|   -7.415024|    0.824058|    0.012163|
|         596|   -5.467822|   -7.413096|    0.824059|    0.012163|
|         597|   -5.466242|   -7.411042|    0.824060|    0.012164|
|         598|   -5.464719|   -7.408928|    0.824062|    0.012164|
|         599|   -5.463354|   -7.406819|    0.824063|    0.012164|
|         600|   -5.462232|   -7.404769|    0.824065|    0.012164|
|         601|   -5.461421|   -7.402821|    0.824067|    0.012159|
+-----------------------------------------------------------------------+
|Fixed CL Mode                           |Value                         |
+-----------------------------------------------------------------------+
|Current CL                              |0.824067                      |
|Target CL                               |0.824                         |
|Previous AOA                            |2.78284                       |
|Changed AoA by                          |-0.000326311                  |
+-----------------------------------------------------------------------+
+----------------------------------------------------------------+
|  Inner_Iter|    rms[Rho]|     rms[nu]|          CL|          CD|
+----------------------------------------------------------------+
|         602|   -3.679623|   -7.365083|    0.824069|    0.012159|
|         603|   -4.061923|   -7.380621|    0.824072|    0.012159|
|         604|   -4.299463|   -7.384403|    0.824074|    0.012159|
|         605|   -4.374929|   -7.385978|    0.824077|    0.012158|
|         606|   -4.427701|   -7.386829|    0.824080|    0.012158|
|         607|   -4.496676|   -7.387281|    0.824082|    0.012158|
|         608|   -4.582065|   -7.387417|    0.824085|    0.012158|
|         609|   -4.672020|   -7.387268|    0.824088|    0.012158|
|         610|   -4.751489|   -7.386828|    0.824091|    0.012157|
|         611|   -4.812545|   -7.386066|    0.824094|    0.012157|
|         612|   -4.855685|   -7.384953|    0.824097|    0.012157|
|         613|   -4.883086|   -7.383491|    0.824100|    0.012156|
|         614|   -4.897249|   -7.381700|    0.824103|    0.012156|
|         615|   -4.903593|   -7.379602|    0.824105|    0.012156|
|         616|   -4.909174|   -7.377202|    0.824108|    0.012155|
|         617|   -4.919127|   -7.374510|    0.824111|    0.012155|
|         618|   -4.935032|   -7.371549|    0.824113|    0.012155|
|         619|   -4.955439|   -7.368366|    0.824116|    0.012154|
|         620|   -4.977432|   -7.365021|    0.824118|    0.012154|
|         621|   -4.998508|   -7.361578|    0.824121|    0.012153|
|         622|   -5.017864|   -7.358098|    0.824123|    0.012153|
|         623|   -5.036316|   -7.354635|    0.824125|    0.012152|
|         624|   -5.055146|   -7.351238|    0.824127|    0.012152|
|         625|   -5.075005|   -7.347953|    0.824128|    0.012151|
|         626|   -5.095545|   -7.344828|    0.824130|    0.012151|
|         627|   -5.115689|   -7.341905|    0.824131|    0.012151|
|         628|   -5.134144|   -7.339226|    0.824132|    0.012150|
|         629|   -5.149847|   -7.336824|    0.824134|    0.012150|
|         630|   -5.162216|   -7.334724|    0.824135|    0.012149|
|         631|   -5.171254|   -7.332947|    0.824136|    0.012149|
|         632|   -5.177547|   -7.331502|    0.824136|    0.012148|
|         633|   -5.182143|   -7.330392|    0.824137|    0.012148|
|         634|   -5.186296|   -7.329608|    0.824137|    0.012147|
|         635|   -5.191182|   -7.329137|    0.824138|    0.012147|
|         636|   -5.197659|   -7.328956|    0.824138|    0.012146|
|         637|   -5.206154|   -7.329039|    0.824138|    0.012146|
|         638|   -5.216632|   -7.329355|    0.824138|    0.012145|
|         639|   -5.228628|   -7.329873|    0.824138|    0.012145|
|         640|   -5.241303|   -7.330558|    0.824138|    0.012144|
|         641|   -5.253578|   -7.331379|    0.824138|    0.012144|
|         642|   -5.264342|   -7.332303|    0.824138|    0.012144|
|         643|   -5.272738|   -7.333304|    0.824138|    0.012143|
|         644|   -5.278428|   -7.334358|    0.824138|    0.012143|
|         645|   -5.281695|   -7.335443|    0.824138|    0.012143|
|         646|   -5.283326|   -7.336545|    0.824137|    0.012142|
|         647|   -5.284329|   -7.337650|    0.824137|    0.012142|
|         648|   -5.285651|   -7.338752|    0.824136|    0.012142|
|         649|   -5.287976|   -7.339844|    0.824136|    0.012141|
|         650|   -5.291648|   -7.340927|    0.824136|    0.012141|
|         651|   -5.296680|   -7.342000|    0.824135|    0.012141|
|         652|   -5.302832|   -7.343068|    0.824134|    0.012141|
|         653|   -5.309710|   -7.344137|    0.824134|    0.012141|
|         654|   -5.316876|   -7.345213|    0.824133|    0.012141|
|         655|   -5.323949|   -7.346304|    0.824132|    0.012141|
|         656|   -5.330675|   -7.347417|    0.824132|    0.012141|
|         657|   -5.336966|   -7.348556|    0.824131|    0.012141|
|         658|   -5.342882|   -7.349730|    0.824130|    0.012141|
|         659|   -5.348589|   -7.350946|    0.824129|    0.012141|
|         660|   -5.354304|   -7.352212|    0.824128|    0.012141|
|         661|   -5.360234|   -7.353536|    0.824127|    0.012141|
|         662|   -5.366548|   -7.354926|    0.824125|    0.012141|
|         663|   -5.373354|   -7.356394|    0.824124|    0.012141|
|         664|   -5.380706|   -7.357949|    0.824123|    0.012141|
|         665|   -5.388616|   -7.359604|    0.824121|    0.012141|
|         666|   -5.397071|   -7.361373|    0.824120|    0.012142|
|         667|   -5.406050|   -7.363270|    0.824118|    0.012142|
|         668|   -5.415538|   -7.365312|    0.824117|    0.012142|
|         669|   -5.425530|   -7.367514|    0.824115|    0.012142|
|         670|   -5.436032|   -7.369893|    0.824113|    0.012143|
|         671|   -5.447058|   -7.372463|    0.824112|    0.012143|
|         672|   -5.458624|   -7.375235|    0.824110|    0.012143|
|         673|   -5.470741|   -7.378217|    0.824108|    0.012144|
|         674|   -5.483411|   -7.381415|    0.824106|    0.012144|
|         675|   -5.496623|   -7.384826|    0.824105|    0.012144|
|         676|   -5.510353|   -7.388445|    0.824103|    0.012145|
|         677|   -5.524560|   -7.392257|    0.824102|    0.012145|
|         678|   -5.539193|   -7.396244|    0.824100|    0.012146|
|         679|   -5.554187|   -7.400377|    0.824099|    0.012146|
|         680|   -5.569464|   -7.404625|    0.824098|    0.012146|
|         681|   -5.584935|   -7.408948|    0.824096|    0.012147|
|         682|   -5.600500|   -7.413301|    0.824095|    0.012147|
|         683|   -5.616049|   -7.417637|    0.824094|    0.012148|
|         684|   -5.631459|   -7.421907|    0.824094|    0.012148|
|         685|   -5.646602|   -7.426059|    0.824093|    0.012149|
|         686|   -5.661341|   -7.430046|    0.824092|    0.012149|
|         687|   -5.675540|   -7.433826|    0.824092|    0.012150|
|         688|   -5.689063|   -7.437361|    0.824092|    0.012150|
|         689|   -5.701784|   -7.440625|    0.824092|    0.012150|
|         690|   -5.713591|   -7.443600|    0.824092|    0.012151|
|         691|   -5.724388|   -7.446281|    0.824092|    0.012151|
|         692|   -5.734107|   -7.448673|    0.824092|    0.012152|
|         693|   -5.742704|   -7.450794|    0.824093|    0.012152|
|         694|   -5.750165|   -7.452673|    0.824094|    0.012152|
|         695|   -5.756503|   -7.454346|    0.824094|    0.012153|
|         696|   -5.761760|   -7.455857|    0.824095|    0.012153|
|         697|   -5.765997|   -7.457255|    0.824096|    0.012153|
|         698|   -5.769297|   -7.458588|    0.824097|    0.012154|
|         699|   -5.771754|   -7.459907|    0.824098|    0.012154|
|         700|   -5.773474|   -7.461257|    0.824100|    0.012154|
|         701|   -5.774565|   -7.462679|    0.824101|    0.012148|
+-----------------------------------------------------------------------+
|Fixed CL Mode                           |Value                         |
+-----------------------------------------------------------------------+
|Current CL                              |0.824101                      |
|Target CL                               |0.824                         |
|Previous AOA                            |2.78252                       |
|Changed AoA by                          |-0.000498133                  |
+-----------------------------------------------------------------------+
+----------------------------------------------------------------+
|  Inner_Iter|    rms[Rho]|     rms[nu]|          CL|          CD|
+----------------------------------------------------------------+
|         702|   -3.496056|   -7.369358|    0.824102|    0.012148|
|         703|   -3.880285|   -7.413495|    0.824104|    0.012148|
|         704|   -4.123217|   -7.429142|    0.824105|    0.012148|
|         705|   -4.201233|   -7.438842|    0.824107|    0.012149|
|         706|   -4.254644|   -7.446521|    0.824108|    0.012149|
|         707|   -4.324321|   -7.453112|    0.824110|    0.012149|
|         708|   -4.410828|   -7.458906|    0.824112|    0.012149|
|         709|   -4.501798|   -7.464068|    0.824113|    0.012149|
|         710|   -4.581078|   -7.468695|    0.824115|    0.012150|
|         711|   -4.640123|   -7.472798|    0.824116|    0.012150|
|         712|   -4.679956|   -7.476399|    0.824118|    0.012150|
|         713|   -4.703796|   -7.479611|    0.824119|    0.012150|
|         714|   -4.715090|   -7.482603|    0.824121|    0.012150|
|         715|   -4.719709|   -7.485498|    0.824122|    0.012150|
|         716|   -4.724602|   -7.488328|    0.824123|    0.012150|
|         717|   -4.734561|   -7.491068|    0.824125|    0.012150|
|         718|   -4.750845|   -7.493698|    0.824126|    0.012150|
|         719|   -4.771744|   -7.496231|    0.824127|    0.012150|
|         720|   -4.794110|   -7.498707|    0.824128|    0.012150|
|         721|   -4.815245|   -7.501161|    0.824129|    0.012150|
|         722|   -4.834255|   -7.503602|    0.824129|    0.012150|
|         723|   -4.851993|   -7.506011|    0.824130|    0.012150|
|         724|   -4.869880|   -7.508356|    0.824131|    0.012150|
|         725|   -4.888753|   -7.510609|    0.824131|    0.012150|
|         726|   -4.908466|   -7.512752|    0.824131|    0.012150|
|         727|   -4.928133|   -7.514798|    0.824132|    0.012150|
|         728|   -4.946593|   -7.516767|    0.824132|    0.012150|
|         729|   -4.962813|   -7.518687|    0.824132|    0.012150|
|         730|   -4.976115|   -7.520588|    0.824132|    0.012150|
|         731|   -4.986317|   -7.522504|    0.824132|    0.012149|
|         732|   -4.993802|   -7.524461|    0.824132|    0.012149|
|         733|   -4.999471|   -7.526481|    0.824131|    0.012149|
|         734|   -5.004532|   -7.528576|    0.824131|    0.012149|
|         735|   -5.010205|   -7.530745|    0.824130|    0.012149|
|         736|   -5.017460|   -7.532980|    0.824130|    0.012148|
|         737|   -5.026868|   -7.535263|    0.824129|    0.012148|
|         738|   -5.038549|   -7.537566|    0.824128|    0.012148|
|         739|   -5.052176|   -7.539862|    0.824127|    0.012148|
|         740|   -5.067020|   -7.542123|    0.824126|    0.012147|
|         741|   -5.082040|   -7.544323|    0.824125|    0.012147|
|         742|   -5.096074|   -7.546438|    0.824124|    0.012147|
|         743|   -5.108116|   -7.548449|    0.824123|    0.012147|
|         744|   -5.117627|   -7.550342|    0.824121|    0.012146|
|         745|   -5.124704|   -7.552109|    0.824120|    0.012146|
|         746|   -5.130038|   -7.553743|    0.824118|    0.012146|
|         747|   -5.134651|   -7.555239|    0.824117|    0.012146|
|         748|   -5.139583|   -7.556596|    0.824115|    0.012145|
|         749|   -5.145647|   -7.557810|    0.824113|    0.012145|
|         750|   -5.153300|   -7.558874|    0.824112|    0.012145|
|         751|   -5.162631|   -7.559789|    0.824110|    0.012145|
|         752|   -5.173411|   -7.560555|    0.824107|    0.012144|
|         753|   -5.185192|   -7.561177|    0.824105|    0.012144|
|         754|   -5.197422|   -7.561661|    0.824103|    0.012144|
|         755|   -5.209570|   -7.562010|    0.824100|    0.012144|
|         756|   -5.221232|   -7.562225|    0.824098|    0.012143|
|         757|   -5.232202|   -7.562318|    0.824095|    0.012143|
|         758|   -5.242481|   -7.562304|    0.824092|    0.012143|
|         759|   -5.252236|   -7.562208|    0.824089|    0.012143|
|         760|   -5.261731|   -7.562061|    0.824086|    0.012143|
|         761|   -5.271244|   -7.561902|    0.824083|    0.012142|
|         762|   -5.281013|   -7.561772|    0.824079|    0.012142|
|         763|   -5.291196|   -7.561716|    0.824076|    0.012142|
|         764|   -5.301873|   -7.561788|    0.824073|    0.012142|
|         765|   -5.313055|   -7.562039|    0.824069|    0.012142|
|         766|   -5.324709|   -7.562524|    0.824065|    0.012141|
|         767|   -5.336783|   -7.563296|    0.824062|    0.012141|
|         768|   -5.349228|   -7.564406|    0.824058|    0.012141|
|         769|   -5.362005|   -7.565900|    0.824054|    0.012141|
|         770|   -5.375090|   -7.567819|    0.824051|    0.012141|
|         771|   -5.388473|   -7.570191|    0.824047|    0.012141|
|         772|   -5.402142|   -7.573034|    0.824044|    0.012141|
|         773|   -5.416077|   -7.576350|    0.824040|    0.012141|
|         774|   -5.430246|   -7.580129|    0.824037|    0.012141|
|         775|   -5.444590|   -7.584338|    0.824034|    0.012141|
|         776|   -5.459033|   -7.588932|    0.824031|    0.012141|
|         777|   -5.473476|   -7.593844|    0.824028|    0.012141|
|         778|   -5.487801|   -7.598990|    0.824025|    0.012141|
|         779|   -5.501880|   -7.604268|    0.824023|    0.012141|
|         780|   -5.515580|   -7.609566|    0.824021|    0.012141|
|         781|   -5.528766|   -7.614759|    0.824019|    0.012141|
|         782|   -5.541307|   -7.619721|    0.824017|    0.012141|
|         783|   -5.553085|   -7.624331|    0.824016|    0.012141|
|         784|   -5.563997|   -7.628476|    0.824015|    0.012141|
|         785|   -5.573964|   -7.632063|    0.824014|    0.012142|
|         786|   -5.582929|   -7.635025|    0.824013|    0.012142|
|         787|   -5.590870|   -7.637325|    0.824013|    0.012142|
|         788|   -5.597790|   -7.638961|    0.824013|    0.012142|
|         789|   -5.603726|   -7.639968|    0.824013|    0.012142|
|         790|   -5.608739|   -7.640413|    0.824014|    0.012143|
|         791|   -5.612912|   -7.640392|    0.824015|    0.012143|
|         792|   -5.616343|   -7.640019|    0.824016|    0.012143|
|         793|   -5.619140|   -7.639426|    0.824017|    0.012143|
|         794|   -5.621410|   -7.638746|    0.824018|    0.012144|
|         795|   -5.623259|   -7.638112|    0.824020|    0.012144|
|         796|   -5.624782|   -7.637651|    0.824022|    0.012144|
|         797|   -5.626067|   -7.637472|    0.824024|    0.012145|
|         798|   -5.627186|   -7.637672|    0.824026|    0.012145|
|         799|   -5.628199|   -7.638325|    0.824028|    0.012145|
|         800|   -5.629155|   -7.639484|    0.824030|    0.012145|
|         801|   -5.630089|   -7.641179|    0.824032|    0.012144|
+-----------------------------------------------------------------------+
|Fixed CL Mode                           |Value                         |
+-----------------------------------------------------------------------+
|Current CL                              |0.824032                      |
|Target CL                               |0.824                         |
|Previous AOA                            |2.78202                       |
|Changed AoA by                          |-0.000150031                  |
+-----------------------------------------------------------------------+
+----------------------------------------------------------------+
|  Inner_Iter|    rms[Rho]|     rms[nu]|          CL|          CD|
+----------------------------------------------------------------+
|         802|   -4.017068|   -7.619625|    0.824035|    0.012144|
|         803|   -4.399222|   -7.633776|    0.824037|    0.012144|
|         804|   -4.635804|   -7.640457|    0.824040|    0.012145|
|         805|   -4.710004|   -7.646032|    0.824042|    0.012145|
|         806|   -4.761548|   -7.651410|    0.824045|    0.012145|
|         807|   -4.828996|   -7.656713|    0.824048|    0.012145|
|         808|   -4.912253|   -7.661899|    0.824050|    0.012146|
|         809|   -4.999433|   -7.666885|    0.824053|    0.012146|
|         810|   -5.075999|   -7.671565|    0.824055|    0.012146|
|         811|   -5.134752|   -7.675811|    0.824058|    0.012147|
|         812|   -5.176537|   -7.679502|    0.824060|    0.012147|
|         813|   -5.203517|   -7.682549|    0.824062|    0.012147|
|         814|   -5.217943|   -7.684898|    0.824065|    0.012147|
|         815|   -5.224705|   -7.686511|    0.824067|    0.012148|
|         816|   -5.230315|   -7.687360|    0.824069|    0.012148|
|         817|   -5.239605|   -7.687442|    0.824070|    0.012148|
|         818|   -5.254103|   -7.686786|    0.824072|    0.012148|
|         819|   -5.272513|   -7.685466|    0.824074|    0.012149|
|         820|   -5.292221|   -7.683581|    0.824075|    0.012149|
|         821|   -5.311054|   -7.681250|    0.824077|    0.012149|
|         822|   -5.328383|   -7.678595|    0.824078|    0.012149|
|         823|   -5.344951|   -7.675736|    0.824079|    0.012149|
|         824|   -5.361805|   -7.672789|    0.824080|    0.012149|
|         825|   -5.379353|   -7.669866|    0.824080|    0.012150|
|         826|   -5.397090|   -7.667072|    0.824081|    0.012150|
|         827|   -5.413906|   -7.664502|    0.824081|    0.012150|
|         828|   -5.428606|   -7.662243|    0.824081|    0.012150|
|         829|   -5.440328|   -7.660368|    0.824082|    0.012150|
|         830|   -5.448752|   -7.658937|    0.824082|    0.012150|
|         831|   -5.454130|   -7.657992|    0.824081|    0.012150|
|         832|   -5.457187|   -7.657560|    0.824081|    0.012150|
|         833|   -5.458955|   -7.657653|    0.824081|    0.012150|
|         834|   -5.460538|   -7.658270|    0.824080|    0.012150|
|         835|   -5.462878|   -7.659392|    0.824079|    0.012150|
|         836|   -5.466605|   -7.660991|    0.824079|    0.012150|
|         837|   -5.471964|   -7.663029|    0.824078|    0.012150|
|         838|   -5.478836|   -7.665457|    0.824077|    0.012150|
|         839|   -5.486783|   -7.668221|    0.824076|    0.012150|
|         840|   -5.495140|   -7.671264|    0.824075|    0.012150|
|         841|   -5.503135|   -7.674525|    0.824074|    0.012150|
|         842|   -5.510049|   -7.677947|    0.824072|    0.012150|
|         843|   -5.515395|   -7.681470|    0.824071|    0.012150|
|         844|   -5.519046|   -7.685043|    0.824070|    0.012150|
|         845|   -5.521260|   -7.688616|    0.824069|    0.012150|
|         846|   -5.522586|   -7.692147|    0.824067|    0.012150|
|         847|   -5.523688|   -7.695601|    0.824066|    0.012149|
|         848|   -5.525178|   -7.698950|    0.824065|    0.012149|
|         849|   -5.527491|   -7.702170|    0.824064|    0.012149|
|         850|   -5.530841|   -7.705246|    0.824063|    0.012149|
|         851|   -5.535225|   -7.708167|    0.824061|    0.012149|
|         852|   -5.540476|   -7.710926|    0.824060|    0.012149|
|         853|   -5.546330|   -7.713520|    0.824059|    0.012149|
|         854|   -5.552501|   -7.715944|    0.824058|    0.012149|
|         855|   -5.558743|   -7.718193|    0.824057|    0.012149|
|         856|   -5.564895|   -7.720261|    0.824056|    0.012149|
|         857|   -5.570899|   -7.722139|    0.824054|    0.012149|
|         858|   -5.576786|   -7.723817|    0.824053|    0.012149|
|         859|   -5.582651|   -7.725281|    0.824052|    0.012148|
|         860|   -5.588614|   -7.726519|    0.824051|    0.012148|
|         861|   -5.594790|   -7.727516|    0.824050|    0.012148|
|         862|   -5.601265|   -7.728260|    0.824049|    0.012148|
|         863|   -5.608084|   -7.728743|    0.824048|    0.012148|
|         864|   -5.615257|   -7.728958|    0.824047|    0.012148|
|         865|   -5.622759|   -7.728911|    0.824046|    0.012148|
|         866|   -5.630549|   -7.728610|    0.824045|    0.012148|
|         867|   -5.638575|   -7.728075|    0.824044|    0.012148|
|         868|   -5.646784|   -7.727335|    0.824043|    0.012148|
|         869|   -5.655124|   -7.726428|    0.824043|    0.012148|
|         870|   -5.663547|   -7.725395|    0.824042|    0.012148|
|         871|   -5.672002|   -7.724288|    0.824041|    0.012148|
|         872|   -5.680436|   -7.723158|    0.824040|    0.012148|
|         873|   -5.688787|   -7.722058|    0.824039|    0.012148|
|         874|   -5.696985|   -7.721042|    0.824038|    0.012148|
|         875|   -5.704948|   -7.720157|    0.824038|    0.012148|
|         876|   -5.712590|   -7.719446|    0.824037|    0.012148|
|         877|   -5.719818|   -7.718943|    0.824036|    0.012148|
|         878|   -5.726538|   -7.718673|    0.824036|    0.012148|
|         879|   -5.732663|   -7.718651|    0.824035|    0.012148|
|         880|   -5.738114|   -7.718881|    0.824035|    0.012148|
|         881|   -5.742827|   -7.719356|    0.824034|    0.012148|
|         882|   -5.746753|   -7.720058|    0.824034|    0.012148|
|         883|   -5.749865|   -7.720960|    0.824033|    0.012148|
|         884|   -5.752155|   -7.722025|    0.824033|    0.012148|
|         885|   -5.753639|   -7.723208|    0.824033|    0.012148|
|         886|   -5.754350|   -7.724460|    0.824033|    0.012148|
|         887|   -5.754340|   -7.725729|    0.824033|    0.012148|
|         888|   -5.753678|   -7.726962|    0.824033|    0.012148|
|         889|   -5.752442|   -7.728108|    0.824033|    0.012148|
|         890|   -5.750720|   -7.729123|    0.824033|    0.012148|
|         891|   -5.748602|   -7.729969|    0.824033|    0.012148|
|         892|   -5.746182|   -7.730621|    0.824034|    0.012148|
|         893|   -5.743551|   -7.731062|    0.824034|    0.012148|
|         894|   -5.740796|   -7.731289|    0.824035|    0.012148|
|         895|   -5.737998|   -7.731312|    0.824035|    0.012148|
|         896|   -5.735233|   -7.731150|    0.824036|    0.012148|
|         897|   -5.732569|   -7.730834|    0.824036|    0.012148|
|         898|   -5.730067|   -7.730400|    0.824037|    0.012148|
|         899|   -5.727782|   -7.729890|    0.824038|    0.012148|
|         900|   -5.725761|   -7.729349|    0.824039|    0.012148|
|         901|   -5.724044|   -7.728819|    0.824040|    0.012145|
+-----------------------------------------------------------------------+
|Fixed CL Mode                           |Value                         |
+-----------------------------------------------------------------------+
|Current CL                              |0.82404                       |
|Target CL                               |0.824                         |
|Previous AOA                            |2.78187                       |
[...]
|        5298|   -6.042841|   -7.933018|    0.824237|    0.012153|
|        5299|   -6.049403|   -7.937301|    0.824237|    0.012153|
|        5300|   -6.055623|   -7.941595|    0.824237|    0.012153|
|        5301|   -6.061465|   -7.945915|    0.824237|    0.012153|
|        5302|   -6.066902|   -7.950274|    0.824238|    0.012153|
|        5303|   -6.071914|   -7.954680|    0.824238|    0.012153|
|        5304|   -6.076495|   -7.959141|    0.824238|    0.012153|
|        5305|   -6.080648|   -7.963661|    0.824238|    0.012152|
|        5306|   -6.084385|   -7.968243|    0.824238|    0.012152|
|        5307|   -6.087728|   -7.972889|    0.824238|    0.012152|
|        5308|   -6.090709|   -7.977601|    0.824238|    0.012152|
|        5309|   -6.093365|   -7.982378|    0.824238|    0.012152|
|        5310|   -6.095739|   -7.987222|    0.824238|    0.012152|
|        5311|   -6.097879|   -7.992133|    0.824239|    0.012152|
|        5312|   -6.099834|   -7.997116|    0.824239|    0.012152|
|        5313|   -6.101655|   -8.002173|    0.824239|    0.012152|
|        5314|   -6.103392|   -8.007307|    0.824239|    0.012152|
|        5315|   -6.105093|   -8.012525|    0.824239|    0.012152|
|        5316|   -6.106805|   -8.017831|    0.824239|    0.012152|
|        5317|   -6.108567|   -8.023233|    0.824239|    0.012153|
|        5318|   -6.110418|   -8.028737|    0.824239|    0.012153|
|        5319|   -6.112389|   -8.034349|    0.824240|    0.012153|
|        5320|   -6.114507|   -8.040076|    0.824240|    0.012153|
|        5321|   -6.116791|   -8.045922|    0.824240|    0.012153|
|        5322|   -6.119256|   -8.051891|    0.824240|    0.012153|
|        5323|   -6.121909|   -8.057987|    0.824240|    0.012153|
|        5324|   -6.124752|   -8.064212|    0.824240|    0.012153|
|        5325|   -6.127780|   -8.070566|    0.824240|    0.012153|
|        5326|   -6.130981|   -8.077047|    0.824241|    0.012153|
|        5327|   -6.134340|   -8.083654|    0.824241|    0.012153|
|        5328|   -6.137833|   -8.090380|    0.824241|    0.012153|
|        5329|   -6.141433|   -8.097220|    0.824241|    0.012153|
|        5330|   -6.145109|   -8.104164|    0.824241|    0.012153|
|        5331|   -6.148825|   -8.111204|    0.824241|    0.012154|
|        5332|   -6.152544|   -8.118327|    0.824242|    0.012154|
|        5333|   -6.156225|   -8.125521|    0.824242|    0.012154|
|        5334|   -6.159830|   -8.132775|    0.824242|    0.012154|
|        5335|   -6.163319|   -8.140074|    0.824242|    0.012154|
|        5336|   -6.166657|   -8.147406|    0.824242|    0.012154|
|        5337|   -6.169811|   -8.154764|    0.824242|    0.012154|
|        5338|   -6.172753|   -8.162134|    0.824242|    0.012154|
|        5339|   -6.175462|   -8.169504|    0.824242|    0.012154|
|        5340|   -6.177923|   -8.176863|    0.824243|    0.012154|
|        5341|   -6.180130|   -8.184199|    0.824243|    0.012154|
|        5342|   -6.182085|   -8.191504|    0.824243|    0.012155|
|        5343|   -6.183797|   -8.198772|    0.824243|    0.012155|
|        5344|   -6.185284|   -8.205998|    0.824243|    0.012155|
|        5345|   -6.186569|   -8.213185|    0.824243|    0.012155|
|        5346|   -6.187683|   -8.220328|    0.824243|    0.012155|
|        5347|   -6.188661|   -8.227427|    0.824243|    0.012155|
|        5348|   -6.189545|   -8.234480|    0.824243|    0.012155|
|        5349|   -6.190375|   -8.241490|    0.824244|    0.012155|
|        5350|   -6.191197|   -8.248459|    0.824244|    0.012155|
|        5351|   -6.192053|   -8.255391|    0.824244|    0.012155|
|        5352|   -6.192987|   -8.262293|    0.824244|    0.012155|
|        5353|   -6.194040|   -8.269167|    0.824244|    0.012155|
|        5354|   -6.195251|   -8.276019|    0.824244|    0.012155|
|        5355|   -6.196655|   -8.282852|    0.824244|    0.012155|
|        5356|   -6.198284|   -8.289669|    0.824244|    0.012155|
|        5357|   -6.200166|   -8.296470|    0.824244|    0.012155|
|        5358|   -6.202323|   -8.303256|    0.824244|    0.012155|
|        5359|   -6.204776|   -8.310025|    0.824244|    0.012155|
|        5360|   -6.207537|   -8.316773|    0.824244|    0.012155|
|        5361|   -6.210616|   -8.323497|    0.824244|    0.012155|
|        5362|   -6.214019|   -8.330193|    0.824244|    0.012155|
|        5363|   -6.217743|   -8.336857|    0.824244|    0.012155|
|        5364|   -6.221783|   -8.343483|    0.824244|    0.012155|
|        5365|   -6.226129|   -8.350064|    0.824244|    0.012155|
|        5366|   -6.230765|   -8.356592|    0.824244|    0.012155|
|        5367|   -6.235673|   -8.363059|    0.824244|    0.012155|
|        5368|   -6.240828|   -8.369454|    0.824244|    0.012155|
|        5369|   -6.246201|   -8.375772|    0.824244|    0.012155|
|        5370|   -6.251758|   -8.382003|    0.824244|    0.012155|
|        5371|   -6.257462|   -8.388141|    0.824244|    0.012155|
|        5372|   -6.263272|   -8.394179|    0.824244|    0.012155|
|        5373|   -6.269145|   -8.400111|    0.824244|    0.012155|
|        5374|   -6.275034|   -8.405932|    0.824244|    0.012155|
|        5375|   -6.280891|   -8.411638|    0.824244|    0.012155|
|        5376|   -6.286667|   -8.417227|    0.824244|    0.012155|
|        5377|   -6.292315|   -8.422700|    0.824244|    0.012155|
|        5378|   -6.297787|   -8.428058|    0.824244|    0.012155|
|        5379|   -6.303039|   -8.433307|    0.824243|    0.012155|
|        5380|   -6.308031|   -8.438455|    0.824243|    0.012154|
|        5381|   -6.312727|   -8.443512|    0.824243|    0.012154|
|        5382|   -6.317096|   -8.448492|    0.824243|    0.012154|
|        5383|   -6.321116|   -8.453409|    0.824243|    0.012154|
|        5384|   -6.324769|   -8.458280|    0.824243|    0.012154|
|        5385|   -6.328047|   -8.463120|    0.824244|    0.012154|
|        5386|   -6.330945|   -8.467944|    0.824244|    0.012154|
|        5387|   -6.333468|   -8.472764|    0.824244|    0.012154|
|        5388|   -6.335625|   -8.477591|    0.824244|    0.012154|
|        5389|   -6.337432|   -8.482435|    0.824244|    0.012154|
|        5390|   -6.338908|   -8.487304|    0.824244|    0.012154|
|        5391|   -6.340077|   -8.492202|    0.824244|    0.012153|
|        5392|   -6.340965|   -8.497130|    0.824244|    0.012153|
|        5393|   -6.341597|   -8.502086|    0.824244|    0.012153|
|        5394|   -6.342003|   -8.507063|    0.824244|    0.012153|
|        5395|   -6.342207|   -8.512053|    0.824244|    0.012153|
|        5396|   -6.342233|   -8.517040|    0.824244|    0.012153|
|        5397|   -6.342105|   -8.522009|    0.824245|    0.012153|
|        5398|   -6.341842|   -8.526938|    0.824245|    0.012153|
|        5399|   -6.341463|   -8.531802|    0.824245|    0.012153|
|        5400|   -6.340985|   -8.536574|    0.824245|    0.012153|
|        5401|   -6.340423|   -8.541227|    0.824245|    0.012152|
|        5402|   -6.339788|   -8.545736|    0.824245|    0.012152|
|        5403|   -6.339089|   -8.550074|    0.824245|    0.012152|
|        5404|   -6.338335|   -8.554219|    0.824246|    0.012152|
|        5405|   -6.337533|   -8.558148|    0.824246|    0.012152|
|        5406|   -6.336688|   -8.561843|    0.824246|    0.012152|
|        5407|   -6.335804|   -8.565287|    0.824246|    0.012152|
|        5408|   -6.334886|   -8.568468|    0.824246|    0.012152|
|        5409|   -6.333937|   -8.571380|    0.824246|    0.012152|
|        5410|   -6.332960|   -8.574019|    0.824247|    0.012152|
|        5411|   -6.331958|   -8.576390|    0.824247|    0.012152|
|        5412|   -6.330935|   -8.578498|    0.824247|    0.012152|
|        5413|   -6.329894|   -8.580356|    0.824247|    0.012151|
|        5414|   -6.328839|   -8.581976|    0.824247|    0.012151|
|        5415|   -6.327775|   -8.583376|    0.824247|    0.012151|
|        5416|   -6.326706|   -8.584572|    0.824248|    0.012151|
|        5417|   -6.325638|   -8.585584|    0.824248|    0.012151|
|        5418|   -6.324577|   -8.586430|    0.824248|    0.012151|
|        5419|   -6.323528|   -8.587128|    0.824248|    0.012151|
|        5420|   -6.322500|   -8.587695|    0.824248|    0.012151|
|        5421|   -6.321501|   -8.588147|    0.824248|    0.012151|
|        5422|   -6.320539|   -8.588499|    0.824248|    0.012151|
|        5423|   -6.319623|   -8.588764|    0.824249|    0.012151|
|        5424|   -6.318764|   -8.588952|    0.824249|    0.012151|
|        5425|   -6.317973|   -8.589073|    0.824249|    0.012151|
|        5426|   -6.317262|   -8.589135|    0.824249|    0.012151|
|        5427|   -6.316642|   -8.589146|    0.824249|    0.012151|
|        5428|   -6.316127|   -8.589109|    0.824249|    0.012151|
|        5429|   -6.315731|   -8.589032|    0.824249|    0.012151|
|        5430|   -6.315468|   -8.588920|    0.824249|    0.012151|
|        5431|   -6.315352|   -8.588777|    0.824249|    0.012151|
|        5432|   -6.315397|   -8.588611|    0.824249|    0.012151|
|        5433|   -6.315619|   -8.588427|    0.824249|    0.012151|
|        5434|   -6.316032|   -8.588233|    0.824249|    0.012151|
|        5435|   -6.316650|   -8.588037|    0.824249|    0.012151|
|        5436|   -6.317487|   -8.587850|    0.824250|    0.012151|
|        5437|   -6.318555|   -8.587682|    0.824250|    0.012151|
|        5438|   -6.319867|   -8.587543|    0.824250|    0.012151|
|        5439|   -6.321433|   -8.587447|    0.824250|    0.012151|
|        5440|   -6.323262|   -8.587404|    0.824250|    0.012151|
|        5441|   -6.325362|   -8.587429|    0.824250|    0.012151|
|        5442|   -6.327737|   -8.587534|    0.824250|    0.012151|
|        5443|   -6.330392|   -8.587731|    0.824250|    0.012151|
|        5444|   -6.333326|   -8.588033|    0.824250|    0.012151|
|        5445|   -6.336539|   -8.588450|    0.824250|    0.012151|
|        5446|   -6.340024|   -8.588993|    0.824250|    0.012151|
|        5447|   -6.343774|   -8.589670|    0.824250|    0.012151|
|        5448|   -6.347778|   -8.590491|    0.824249|    0.012152|
|        5449|   -6.352021|   -8.591460|    0.824249|    0.012152|
|        5450|   -6.356485|   -8.592583|    0.824249|    0.012152|
|        5451|   -6.361147|   -8.593865|    0.824249|    0.012152|
|        5452|   -6.365982|   -8.595306|    0.824249|    0.012152|
|        5453|   -6.370960|   -8.596910|    0.824249|    0.012152|
|        5454|   -6.376048|   -8.598674|    0.824249|    0.012152|
|        5455|   -6.381209|   -8.600599|    0.824249|    0.012152|
|        5456|   -6.386403|   -8.602680|    0.824249|    0.012152|
|        5457|   -6.391589|   -8.604916|    0.824249|    0.012152|
|        5458|   -6.396721|   -8.607302|    0.824249|    0.012152|
|        5459|   -6.401752|   -8.609834|    0.824249|    0.012152|
|        5460|   -6.406637|   -8.612507|    0.824249|    0.012152|
|        5461|   -6.411328|   -8.615316|    0.824248|    0.012153|
|        5462|   -6.415779|   -8.618254|    0.824248|    0.012153|
|        5463|   -6.419949|   -8.621316|    0.824248|    0.012153|
|        5464|   -6.423797|   -8.624494|    0.824248|    0.012153|
|        5465|   -6.427290|   -8.627782|    0.824248|    0.012153|
|        5466|   -6.430398|   -8.631174|    0.824248|    0.012153|
|        5467|   -6.433099|   -8.634661|    0.824248|    0.012153|
|        5468|   -6.435379|   -8.638236|    0.824247|    0.012153|
|        5469|   -6.437229|   -8.641892|    0.824247|    0.012153|
|        5470|   -6.438652|   -8.645622|    0.824247|    0.012153|
|        5471|   -6.439654|   -8.649416|    0.824247|    0.012153|
|        5472|   -6.440252|   -8.653267|    0.824247|    0.012153|
|        5473|   -6.440469|   -8.657165|    0.824247|    0.012153|
|        5474|   -6.440333|   -8.661102|    0.824246|    0.012153|
|        5475|   -6.439876|   -8.665068|    0.824246|    0.012153|
|        5476|   -6.439136|   -8.669052|    0.824246|    0.012153|
|        5477|   -6.438153|   -8.673044|    0.824246|    0.012153|
|        5478|   -6.436968|   -8.677034|    0.824246|    0.012153|
|        5479|   -6.435622|   -8.681010|    0.824245|    0.012153|
|        5480|   -6.434157|   -8.684960|    0.824245|    0.012154|
|        5481|   -6.432615|   -8.688873|    0.824245|    0.012154|
|        5482|   -6.431034|   -8.692737|    0.824245|    0.012154|
|        5483|   -6.429452|   -8.696542|    0.824245|    0.012154|
|        5484|   -6.427903|   -8.700276|    0.824245|    0.012154|
|        5485|   -6.426420|   -8.703930|    0.824244|    0.012154|
|        5486|   -6.425031|   -8.707494|    0.824244|    0.012154|
|        5487|   -6.423762|   -8.710962|    0.824244|    0.012154|
|        5488|   -6.422638|   -8.714325|    0.824244|    0.012154|
|        5489|   -6.421677|   -8.717579|    0.824244|    0.012154|
|        5490|   -6.420899|   -8.720721|    0.824244|    0.012154|
|        5491|   -6.420317|   -8.723749|    0.824243|    0.012154|
|        5492|   -6.419944|   -8.726662|    0.824243|    0.012154|
|        5493|   -6.419791|   -8.729463|    0.824243|    0.012153|
|        5494|   -6.419864|   -8.732155|    0.824243|    0.012153|
|        5495|   -6.420170|   -8.734744|    0.824243|    0.012153|
|        5496|   -6.420712|   -8.737235|    0.824243|    0.012153|
|        5497|   -6.421494|   -8.739637|    0.824243|    0.012153|
|        5498|   -6.422514|   -8.741959|    0.824242|    0.012153|
|        5499|   -6.423774|   -8.744211|    0.824243|    0.012139|
+-----------------------------------------------------------------------+
|Fixed CL Mode (Finite Difference)       |Value                         |
+-----------------------------------------------------------------------+
|Delta CL / Delta AoA                    |0.242541                      |
|Delta CD / Delta CL                     |0.0200621                     |
|Delta CMz / Delta CL                    |0.00949768                    |
+-----------------------------------------------------------------------+
Writing Flow Meta-Data file: flow.meta

----------------------------- Solver Exit -------------------------------

Maximum number of iterations reached (ITER = 5500) before convergence.
+-----------------------------------------------------------------------+
|      Convergence Field     |     Value    |   Criterion  |  Converged |
+-----------------------------------------------------------------------+
|                    rms[Rho]|      -6.42377|         < -12|          No|
+-----------------------------------------------------------------------+
-------------------------------------------------------------------------

--------------------------- Finalizing Solver ---------------------------
Deleted CNumerics container.
Deleted CIntegration container.
Deleted CSolver container.
Deleted CIteration container.
Deleted CInterface container.
Deleted CGeometry container.
Deleted CFreeFormDefBox class.
Deleted CSurfaceMovement class.
Deleted CVolumetricMovement class.
Deleted CConfig container.
Deleted nInst container.
Deleted COutput class.
-------------------------------------------------------------------------

------------------------- Exit Success (SU2_CFD) ------------------------


-------------------------------------------------------------------------
|    ___ _   _ ___                                                      |
|   / __| | | |_  )   Release 8.0.0 "Harrier"                           |
|   \__ \ |_| |/ /                                                      |
|   |___/\___//___|   Suite (Solution Exporting Code)                   |
|                                                                       |
-------------------------------------------------------------------------
| SU2 Project Website: https://su2code.github.io                        |
|                                                                       |
| The SU2 Project is maintained by the SU2 Foundation                   |
| (http://su2foundation.org)                                            |
-------------------------------------------------------------------------
| Copyright 2012-2023, SU2 Contributors                                 |
|                                                                       |
| SU2 is free software; you can redistribute it and/or                  |
| modify it under the terms of the GNU Lesser General Public            |
| License as published by the Free Software Foundation; either          |
| version 2.1 of the License, or (at your option) any later version.    |
|                                                                       |
| SU2 is distributed in the hope that it will be useful,                |
| but WITHOUT ANY WARRANTY; without even the implied warranty of        |
| MERCHANTABILITY or FITNESS FOR A PARTICULAR PURPOSE. See the GNU      |
| Lesser General Public License for more details.                       |
|                                                                       |
| You should have received a copy of the GNU Lesser General Public      |
| License along with SU2. If not, see <http://www.gnu.org/licenses/>.   |
-------------------------------------------------------------------------

----------------- Physical Case Definition ( Zone 0 ) -------------------
Input mesh file name: mesh_RAE2822_turb_deform.su2

-------------------- Output Information ( Zone 0 ) ----------------------
The tabular file format is CSV (.csv).
Flow variables file name: flow.

------------- Config File Boundary Information ( Zone 0 ) ---------------
+-----------------------------------------------------------------------+
|                        Marker Type|                        Marker Name|
+-----------------------------------------------------------------------+
|                          Far-field|                           FARFIELD|
+-----------------------------------------------------------------------+
|                     Heat flux wall|                            AIRFOIL|
+-----------------------------------------------------------------------+
Two dimensional problem.
13937 grid points before partitioning.
22842 volume elements before partitioning.
2 surface markers.
192 boundary elements in index 0 (Marker = AIRFOIL).
40 boundary elements in index 1 (Marker = FARFIELD).
Executing the partitioning functions.
Building the graph adjacency structure.
Calling ParMETIS... graph partitioning complete (831 edge cuts).
Distributing ParMETIS coloring.
Rebalancing vertices.
Rebalancing volume element connectivity.
Rebalancing markers and surface elements.
14875 vertices including ghost points. 
23674 interior elements including halo cells. 
18780 triangles.
4894 quadrilaterals.
Establishing MPI communication patterns.
Identify vertices.
Storing a mapping from global to local point index.

------------------------- Solution Postprocessing -----------------------
Reading and storing the solution from restart_flow.
Volume output fields: COORDINATES, SOLUTION
  Info: Ignoring the following screen output fields:
  RMS_DENSITY, RMS_NU_TILDE, LIFT, DRAG
Screen output fields: INNER_ITER
  Info: Ignoring the following history output groups:
  RMS_RES, AERO_COEFF
History output group(s): ITER
Warning: No (valid) fields chosen for convergence monitoring. Convergence monitoring inactive.
Warning: No (valid) fields chosen for time convergence monitoring. Time convergence monitoring inactive.
|Paraview                           |flow.vtu                           |
|Paraview surface                   |surface_flow.vtu                   |
|CSV file                           |surface_flow.csv                   |

------------------------- Finalize Solver -------------------------
Deleted CGeometry container.
Deleted CSolver class.
Deleted CConfig container.
Deleted COutput class.

Completed in 0.017954 seconds on 6 cores.

------------------------- Exit Success (SU2_SOL) ------------------------

