
-------------------------------------------------------------------------
|    ___ _   _ ___                                                      |
|   / __| | | |_  )   Release 8.0.0 "Harrier"                           |
|   \__ \ |_| |/ /                                                      |
|   |___/\___//___|   Suite (Computational Fluid Dynamics Code)         |
|                                                                       |
-------------------------------------------------------------------------
| SU2 Project Website: https://su2code.github.io                        |
|                                                                       |
| The SU2 Project is maintained by the SU2 Foundation                   |
| (http://su2foundation.org)                                            |
-------------------------------------------------------------------------
| Copyright 2012-2023, SU2 Contributors                                 |
|                                                                       |
| SU2 is free software; you can redistribute it and/or                  |
| modify it under the terms of the GNU Lesser General Public            |
| License as published by the Free Software Foundation; either          |
| version 2.1 of the License, or (at your option) any later version.    |
|                                                                       |
| SU2 is distributed in the hope that it will be useful,                |
| but WITHOUT ANY WARRANTY; without even the implied warranty of        |
| MERCHANTABILITY or FITNESS FOR A PARTICULAR PURPOSE. See the GNU      |
| Lesser General Public License for more details.                       |
|                                                                       |
| You should have received a copy of the GNU Lesser General Public      |
| License along with SU2. If not, see <http://www.gnu.org/licenses/>.   |
-------------------------------------------------------------------------

Parsing config file for zone 0

----------------- Physical Case Definition ( Zone 0 ) -------------------
Compressible RANS equations.
Turbulence model: Spalart-Allmaras-noft2
Hybrid RANS/LES: No Hybrid RANS/LES
Mach number: 0.734.
Angle of attack (AoA): 2.31 deg, and angle of sideslip (AoS): 0 deg.
Reynolds number: 6.5e+06. Reference length 1.
Fixed CL mode, target value: 0.824.
Reading and writing binary SU2 native restart files.
Read flow solution from: solution_flow.dat.
Dimensional simulation.
The reference area is 1 m^2.
The semi-span will be computed using the max y(3D) value.
The reference length is 1 m.
Reference origin for moment evaluation is (0.25, 0, 0).
Surface(s) where the force coefficients are evaluated: AIRFOIL.

Surface(s) plotted in the output file: AIRFOIL.
Surface(s) affected by the design variables: AIRFOIL.
Input mesh file name: mesh_RAE2822_turb_deform.su2

--------------- Space Numerical Integration ( Zone 0 ) ------------------
Jameson-Schmidt-Turkel scheme (2nd order in space) for the flow inviscid terms.
JST viscous coefficients (2nd & 4th): 0.5, 0.02.
The method includes a grid stretching correction (p = 0.3).
Scalar upwind solver for the turbulence model.
First order integration in space.
Average of gradients with correction (viscous flow terms).
Average of gradients with correction (viscous turbulence terms).
Gradient for viscous and source terms: inverse-distance weighted Least-Squares.

--------------- Time Numerical Integration  ( Zone 0 ) ------------------
Local time stepping (steady state simulation).
Euler implicit method for the flow equations.
FGMRES is used for solving the linear system.
Using a ILU(0) preconditioning.
Convergence criteria of the linear solver: 1e-06.
Max number of linear iterations: 10.
No CFL adaptation.
Courant-Friedrichs-Lewy number:       10
Euler implicit time integration for the turbulence model.

------------------ Convergence Criteria  ( Zone 0 ) ---------------------
Maximum number of solver subiterations: 5500.
Begin convergence monitoring at iteration 10.
Residual minimum value: 1e-12.
Cauchy series min. value: 1e-06.
Number of Cauchy elements: 100.
Begin windowed time average at iteration 0.

-------------------- Output Information ( Zone 0 ) ----------------------
File writing frequency: 
+------------------------------------+
|                     File| Frequency|
+------------------------------------+
|                  RESTART|     10000|
|                 PARAVIEW|     10000|
|         SURFACE_PARAVIEW|     10000|
|              SURFACE_CSV|     10000|
+------------------------------------+
Writing the convergence history file every 1 inner iterations.
Writing the screen convergence history every 1 inner iterations.
The tabular file format is CSV (.csv).
Convergence history file name: history_direct.
Forces breakdown file name: forces_breakdown.dat.
Surface file name: surface_flow.
Volume file name: flow.
Restart file name: restart_flow.dat.

------------- Config File Boundary Information ( Zone 0 ) ---------------
+-----------------------------------------------------------------------+
|                        Marker Type|                        Marker Name|
+-----------------------------------------------------------------------+
|                          Far-field|                           FARFIELD|
+-----------------------------------------------------------------------+
|                     Heat flux wall|                            AIRFOIL|
+-----------------------------------------------------------------------+

-------------------- Output Preprocessing ( Zone 0 ) --------------------

WARNING: SURFACE_PRESSURE_DROP can only be computed for at least 2 surfaces (outlet, inlet, ...)

Screen output fields: INNER_ITER, RMS_DENSITY, RMS_NU_TILDE, LIFT, DRAG
History output group(s): ITER, RMS_RES, AERO_COEFF
Convergence field(s): RMS_DENSITY
Warning: No (valid) fields chosen for time convergence monitoring. Time convergence monitoring inactive.
Volume output fields: COORDINATES, SOLUTION, PRIMITIVE

------------------- Geometry Preprocessing ( Zone 0 ) -------------------
Two dimensional problem.
13937 grid points before partitioning.
22842 volume elements before partitioning.
2 surface markers.
192 boundary elements in index 0 (Marker = AIRFOIL).
40 boundary elements in index 1 (Marker = FARFIELD).
Executing the partitioning functions.
Building the graph adjacency structure.
Calling ParMETIS... graph partitioning complete (831 edge cuts).
Distributing ParMETIS coloring.
Rebalancing vertices.
Rebalancing volume element connectivity.
Rebalancing markers and surface elements.
14875 vertices including ghost points. 
23674 interior elements including halo cells. 
18780 triangles.
4894 quadrilaterals.
Establishing MPI communication patterns.
Setting point connectivity.
Renumbering points (Reverse Cuthill McKee Ordering).
Recomputing point connectivity.
Setting element connectivity.
Checking the numerical grid orientation.
All volume elements are correctly orientend.
All surface elements are correctly orientend.
Identifying edges and vertices.
Setting the control volume structure.
Area of the computational grid: 32209.9.
Searching for the closest normal neighbors to the surfaces.
Storing a mapping from global to local point index.
Compute the surface curvature.
Max K: 174.962. Mean K: 7.85123. Standard deviation K: 24.0725.
Checking for periodicity.
Computing mesh quality statistics for the dual control volumes.
+--------------------------------------------------------------+
|           Mesh Quality Metric|        Minimum|        Maximum|
+--------------------------------------------------------------+
|    Orthogonality Angle (deg.)|        75.1236|        89.9991|
|     CV Face Area Aspect Ratio|        1.00397|         3358.5|
|           CV Sub-Volume Ratio|        1.00046|        1215.33|
+--------------------------------------------------------------+
Finding max control volume width.
Communicating number of neighbors.
Wetted area = 2.02184 m.
Area projection in the x-plane = 0.124893 m, y-plane = 0.995873 m.
Max. coordinate in the x-direction = 1 m, y-direction = 0.062075 m.
Min. coordinate in the x-direction = 0 m, y-direction = -0.0599491 m.
Computing wall distances.

-------------------- Solver Preprocessing ( Zone 0 ) --------------------
WARNING: AoA in the solution file (2.78894 deg.) +
         AoA offset in mesh file (0 deg.) = 2.78894 deg.
WARNING: SU2 will use the dCD/dCL provided in the direct solution file: 0.018124.
WARNING: SU2 will use the dCMz/dCL provided in the direct solution file: 0.00584739.
Viscous flow: Computing pressure using the ideal gas law
based on the free-stream temperature and a density computed
from the Reynolds number.
Force coefficients computed using free-stream values.

-- Models:
+------------------------------------------------------------------------------+
|          Viscosity Model|        Conductivity Model|              Fluid Model|
+------------------------------------------------------------------------------+
|               SUTHERLAND|          CONSTANT_PRANDTL|             STANDARD_AIR|
+------------------------------------------------------------------------------+
-- Fluid properties:
+------------------------------------------------------------------------------+
|                  Name|    Dim. value|    Ref. value|      Unit|Non-dim. value|
+------------------------------------------------------------------------------+
|        Ref. Viscosity|     1.716e-05|             1|   N.s/m^2|     1.716e-05|
|      Sutherland Temp.|        273.15|             1|         K|        273.15|
|     Sutherland Const.|         110.4|             1|         K|         110.4|
+------------------------------------------------------------------------------+
|        Prandtl (Lam.)|             -|             -|         -|          0.71|
|       Prandtl (Turb.)|             -|             -|         -|           0.9|
+------------------------------------------------------------------------------+
|          Gas Constant|       287.058|             1|  N.m/kg.K|       287.058|
|      Spec. Heat Ratio|             -|             -|         -|           1.4|
+------------------------------------------------------------------------------+
-- Initial and free-stream conditions:
+------------------------------------------------------------------------------+
|                  Name|    Dim. value|    Ref. value|      Unit|Non-dim. value|
+------------------------------------------------------------------------------+
|       Static Pressure|         38515|             1|        Pa|         38515|
|               Density|      0.465631|             1|    kg/m^3|      0.465631|
|           Temperature|        288.15|             1|         K|        288.15|
|          Total Energy|        237984|             1|   m^2/s^2|        237984|
|            Velocity-X|       249.482|             1|       m/s|       249.482|
|            Velocity-Y|       12.1534|             1|       m/s|       12.1534|
|    Velocity Magnitude|       249.778|             1|       m/s|       249.778|
+------------------------------------------------------------------------------+
|             Viscosity|    1.7893e-05|             1|   N.s/m^2|    1.7893e-05|
|          Conductivity|             -|             1|   W/m^2.K|             -|
|     Turb. Kin. Energy|       233.959|             1|   m^2/s^2|       233.959|
|     Spec. Dissipation|        608834|             1|       1/s|        608834|
+------------------------------------------------------------------------------+
|           Mach Number|             -|             -|         -|         0.734|
|       Reynolds Number|             -|             -|         -|       6.5e+06|
+------------------------------------------------------------------------------+
Initialize Jacobian structure (Navier-Stokes). MG level: 0.
Initialize Jacobian structure (SA model).

------------------- Numerics Preprocessing ( Zone 0 ) -------------------

----------------- Integration Preprocessing ( Zone 0 ) ------------------

------------------- Iteration Preprocessing ( Zone 0 ) ------------------
Euler/Navier-Stokes/RANS fluid iteration.

------------------------------ Begin Solver -----------------------------

Simulation Run using the Single-zone Driver
WARNING: SU2 was not compiled for an AVX-capable architecture. Performance could be better,
         see https://su2code.github.io/docs_v7/Build-SU2-Linux-MacOS/#compiler-optimizations
+----------------------------------------------------------------+
|  Inner_Iter|    rms[Rho]|     rms[nu]|          CL|          CD|
+----------------------------------------------------------------+
|           0|   -5.951694|   -7.119505|    0.824007|    0.012013|
|           1|   -6.018479|   -7.224526|    0.824012|    0.012014|
|           2|   -6.090690|   -7.337730|    0.824015|    0.012015|
|           3|   -6.142511|   -7.455467|    0.824017|    0.012015|
|           4|   -6.176566|   -7.579110|    0.824018|    0.012015|
|           5|   -6.200707|   -7.700984|    0.824018|    0.012015|
|           6|   -6.216025|   -7.789137|    0.824018|    0.012015|
|           7|   -6.221266|   -7.812158|    0.824019|    0.012016|
|           8|   -6.217298|   -7.792479|    0.824019|    0.012016|
|           9|   -6.206561|   -7.769014|    0.824019|    0.012016|
|          10|   -6.191559|   -7.757125|    0.824019|    0.012017|
|          11|   -6.174609|   -7.756237|    0.824020|    0.012017|
|          12|   -6.157856|   -7.760085|    0.824020|    0.012018|
|          13|   -6.142949|   -7.762037|    0.824020|    0.012018|
|          14|   -6.130711|   -7.758422|    0.824020|    0.012019|
|          15|   -6.121110|   -7.749397|    0.824020|    0.012019|
|          16|   -6.113525|   -7.737154|    0.824020|    0.012020|
|          17|   -6.107151|   -7.723707|    0.824020|    0.012020|
|          18|   -6.101373|   -7.710006|    0.824020|    0.012021|
|          19|   -6.095985|   -7.696217|    0.824020|    0.012021|
|          20|   -6.091157|   -7.682307|    0.824020|    0.012022|
|          21|   -6.087230|   -7.668442|    0.824020|    0.012023|
|          22|   -6.084469|   -7.655069|    0.824020|    0.012023|
|          23|   -6.082895|   -7.642825|    0.824020|    0.012023|
|          24|   -6.082255|   -7.632373|    0.824020|    0.012024|
|          25|   -6.082109|   -7.624283|    0.824020|    0.012024|
|          26|   -6.081968|   -7.618957|    0.824019|    0.012025|
|          27|   -6.081436|   -7.616595|    0.824019|    0.012025|
|          28|   -6.080293|   -7.617200|    0.824019|    0.012025|
|          29|   -6.078512|   -7.620589|    0.824019|    0.012025|
|          30|   -6.076209|   -7.626423|    0.824019|    0.012025|
|          31|   -6.073577|   -7.634225|    0.824018|    0.012025|
|          32|   -6.070823|   -7.643417|    0.824018|    0.012025|
|          33|   -6.068122|   -7.653345|    0.824018|    0.012025|
|          34|   -6.065603|   -7.663323|    0.824018|    0.012025|
|          35|   -6.063345|   -7.672676|    0.824018|    0.012025|
|          36|   -6.061379|   -7.680805|    0.824018|    0.012025|
|          37|   -6.059695|   -7.687256|    0.824017|    0.012025|
|          38|   -6.058252|   -7.691773|    0.824017|    0.012025|
|          39|   -6.056985|   -7.694334|    0.824017|    0.012025|
|          40|   -6.055821|   -7.695144|    0.824016|    0.012024|
|          41|   -6.054681|   -7.694587|    0.824016|    0.012024|
|          42|   -6.053500|   -7.693154|    0.824016|    0.012024|
|          43|   -6.052230|   -7.691371|    0.824015|    0.012024|
|          44|   -6.050846|   -7.689724|    0.824015|    0.012024|
|          45|   -6.049339|   -7.688624|    0.824014|    0.012024|
|          46|   -6.047715|   -7.688375|    0.824014|    0.012023|
|          47|   -6.045984|   -7.689173|    0.824013|    0.012023|
|          48|   -6.044151|   -7.691106|    0.824013|    0.012023|
|          49|   -6.042212|   -7.694163|    0.824012|    0.012023|
|          50|   -6.040155|   -7.698249|    0.824012|    0.012023|
|          51|   -6.037959|   -7.703189|    0.824011|    0.012022|
|          52|   -6.035603|   -7.708747|    0.824011|    0.012022|
|          53|   -6.033069|   -7.714634|    0.824011|    0.012022|
|          54|   -6.030346|   -7.720533|    0.824011|    0.012022|
|          55|   -6.027438|   -7.726117|    0.824011|    0.012022|
|          56|   -6.024358|   -7.731086|    0.824012|    0.012021|
|          57|   -6.021129|   -7.735192|    0.824012|    0.012021|
|          58|   -6.017783|   -7.738272|    0.824013|    0.012021|
|          59|   -6.014356|   -7.740256|    0.824013|    0.012021|
|          60|   -6.010885|   -7.741172|    0.824014|    0.012021|
|          61|   -6.007408|   -7.741124|    0.824015|    0.012020|
|          62|   -6.003958|   -7.740266|    0.824016|    0.012020|
|          63|   -6.000567|   -7.738766|    0.824017|    0.012020|
|          64|   -5.997260|   -7.736784|    0.824018|    0.012020|
|          65|   -5.994058|   -7.734457|    0.824019|    0.012020|
|          66|   -5.990976|   -7.731894|    0.824020|    0.012020|
|          67|   -5.988021|   -7.729188|    0.824021|    0.012020|
|          68|   -5.985198|   -7.726424|    0.824022|    0.012020|
|          69|   -5.982504|   -7.723696|    0.824023|    0.012019|
|          70|   -5.979937|   -7.721115|    0.824024|    0.012019|
|          71|   -5.977490|   -7.718804|    0.824025|    0.012019|
|          72|   -5.975161|   -7.716900|    0.824026|    0.012019|
|          73|   -5.972945|   -7.715534|    0.824027|    0.012019|
|          74|   -5.970842|   -7.714821|    0.824028|    0.012019|
|          75|   -5.968852|   -7.714846|    0.824028|    0.012019|
|          76|   -5.966976|   -7.715654|    0.824029|    0.012019|
|          77|   -5.965212|   -7.717246|    0.824030|    0.012019|
|          78|   -5.963556|   -7.719579|    0.824030|    0.012019|
|          79|   -5.961999|   -7.722574|    0.824031|    0.012019|
|          80|   -5.960529|   -7.726123|    0.824031|    0.012019|
|          81|   -5.959129|   -7.730099|    0.824032|    0.012019|
|          82|   -5.957781|   -7.734376|    0.824032|    0.012019|
|          83|   -5.956467|   -7.738831|    0.824033|    0.012019|
|          84|   -5.955174|   -7.743360|    0.824033|    0.012019|
|          85|   -5.953891|   -7.747877|    0.824034|    0.012019|
|          86|   -5.952618|   -7.752321|    0.824034|    0.012019|
|          87|   -5.951360|   -7.756649|    0.824034|    0.012019|
|          88|   -5.950131|   -7.760834|    0.824035|    0.012019|
|          89|   -5.948952|   -7.764861|    0.824035|    0.012019|
|          90|   -5.947848|   -7.768720|    0.824035|    0.012019|
|          91|   -5.946847|   -7.772403|    0.824036|    0.012019|
|          92|   -5.945977|   -7.775902|    0.824036|    0.012019|
|          93|   -5.945266|   -7.779210|    0.824036|    0.012019|
|          94|   -5.944737|   -7.782318|    0.824037|    0.012019|
|          95|   -5.944410|   -7.785217|    0.824037|    0.012019|
|          96|   -5.944298|   -7.787903|    0.824037|    0.012019|
|          97|   -5.944408|   -7.790371|    0.824038|    0.012019|
|          98|   -5.944740|   -7.792623|    0.824038|    0.012019|
|          99|   -5.945289|   -7.794660|    0.824038|    0.012019|
|         100|   -5.946041|   -7.796491|    0.824039|    0.012019|
|         101|   -5.946972|   -7.798123|    0.824039|    0.012016|
+-----------------------------------------------------------------------+
|Fixed CL Mode                           |Value                         |
+-----------------------------------------------------------------------+
|Current CL                              |0.824039                      |
|Target CL                               |0.824                         |
|Previous AOA                            |2.78894                       |
|Changed AoA by                          |-0.000193565                  |
+-----------------------------------------------------------------------+
+----------------------------------------------------------------+
|  Inner_Iter|    rms[Rho]|     rms[nu]|          CL|          CD|
+----------------------------------------------------------------+
|         102|   -3.906472|   -7.728654|    0.824039|    0.012017|
|         103|   -4.290202|   -7.762811|    0.824040|    0.012017|
|         104|   -4.532676|   -7.774367|    0.824040|    0.012017|
|         105|   -4.611380|   -7.781117|    0.824041|    0.012017|
|         106|   -4.665684|   -7.786083|    0.824041|    0.012017|
|         107|   -4.736240|   -7.790007|    0.824041|    0.012017|
|         108|   -4.823703|   -7.793160|    0.824042|    0.012017|
|         109|   -4.915639|   -7.795714|    0.824042|    0.012017|
|         110|   -4.995507|   -7.797790|    0.824042|    0.012017|
|         111|   -5.054327|   -7.799440|    0.824043|    0.012017|
|         112|   -5.093063|   -7.800726|    0.824043|    0.012018|
|         113|   -5.115229|   -7.801764|    0.824043|    0.012018|
|         114|   -5.124720|   -7.802702|    0.824044|    0.012018|
|         115|   -5.127751|   -7.803655|    0.824044|    0.012018|
|         116|   -5.131340|   -7.804667|    0.824044|    0.012018|
|         117|   -5.140150|   -7.805748|    0.824044|    0.012018|
|         118|   -5.155254|   -7.806911|    0.824045|    0.012018|
|         119|   -5.174782|   -7.808189|    0.824045|    0.012018|
|         120|   -5.195473|   -7.809631|    0.824045|    0.012018|
|         121|   -5.214561|   -7.811281|    0.824045|    0.012018|
|         122|   -5.231106|   -7.813159|    0.824045|    0.012019|
|         123|   -5.245922|   -7.815269|    0.824045|    0.012019|
|         124|   -5.260400|   -7.817602|    0.824046|    0.012019|
|         125|   -5.275411|   -7.820142|    0.824046|    0.012019|
|         126|   -5.290956|   -7.822874|    0.824046|    0.012019|
|         127|   -5.306421|   -7.825796|    0.824046|    0.012019|
|         128|   -5.320998|   -7.828905|    0.824046|    0.012019|
|         129|   -5.333996|   -7.832198|    0.824046|    0.012019|
|         130|   -5.344974|   -7.835678|    0.824046|    0.012019|
|         131|   -5.353811|   -7.839347|    0.824046|    0.012019|
|         132|   -5.360757|   -7.843208|    0.824046|    0.012019|
|         133|   -5.366424|   -7.847268|    0.824046|    0.012019|
|         134|   -5.371675|   -7.851530|    0.824046|    0.012019|
|         135|   -5.377413|   -7.855993|    0.824046|    0.012019|
|         136|   -5.384387|   -7.860656|    0.824046|    0.012019|
|         137|   -5.393052|   -7.865515|    0.824046|    0.012019|
|         138|   -5.403515|   -7.870565|    0.824046|    0.012019|
|         139|   -5.415532|   -7.875803|    0.824046|    0.012019|
|         140|   -5.428543|   -7.881224|    0.824045|    0.012019|
|         141|   -5.441755|   -7.886825|    0.824045|    0.012019|
|         142|   -5.454290|   -7.892608|    0.824045|    0.012019|
|         143|   -5.465399|   -7.898573|    0.824045|    0.012019|
|         144|   -5.474674|   -7.904722|    0.824045|    0.012019|
|         145|   -5.482173|   -7.911060|    0.824044|    0.012019|
|         146|   -5.488387|   -7.917590|    0.824044|    0.012019|
|         147|   -5.494066|   -7.924312|    0.824044|    0.012019|
|         148|   -5.499987|   -7.931230|    0.824043|    0.012019|
|         149|   -5.506767|   -7.938343|    0.824043|    0.012019|
|         150|   -5.514752|   -7.945645|    0.824042|    0.012019|
|         151|   -5.523997|   -7.953132|    0.824041|    0.012019|
|         152|   -5.534298|   -7.960794|    0.824041|    0.012019|
|         153|   -5.545272|   -7.968625|    0.824040|    0.012019|
|         154|   -5.556451|   -7.976602|    0.824039|    0.012018|
|         155|   -5.567388|   -7.984709|    0.824038|    0.012018|
|         156|   -5.577741|   -7.992930|    0.824037|    0.012018|
|         157|   -5.587325|   -8.001256|    0.824036|    0.012018|
|         158|   -5.596121|   -8.009682|    0.824035|    0.012018|
|         159|   -5.604243|   -8.018210|    0.824033|    0.012018|
|         160|   -5.611875|   -8.026836|    0.824032|    0.012018|
|         161|   -5.619216|   -8.035565|    0.824031|    0.012018|
|         162|   -5.626430|   -8.044407|    0.824029|    0.012017|
|         163|   -5.633623|   -8.053371|    0.824028|    0.012017|
|         164|   -5.640840|   -8.062474|    0.824026|    0.012017|
|         165|   -5.648079|   -8.071726|    0.824024|    0.012017|
|         166|   -5.655307|   -8.081121|    0.824023|    0.012017|
|         167|   -5.662485|   -8.090642|    0.824021|    0.012017|
|         168|   -5.669575|   -8.100260|    0.824020|    0.012017|
|         169|   -5.676551|   -8.109932|    0.824018|    0.012016|
|         170|   -5.683401|   -8.119595|    0.824016|    0.012016|
|         171|   -5.690116|   -8.129167|    0.824015|    0.012016|
|         172|   -5.696690|   -8.138540|    0.824013|    0.012016|
|         173|   -5.703111|   -8.147585|    0.824012|    0.012016|
|         174|   -5.709360|   -8.156148|    0.824010|    0.012016|
|         175|   -5.715408|   -8.164059|    0.824009|    0.012015|
|         176|   -5.721222|   -8.171139|    0.824008|    0.012015|
|         177|   -5.726763|   -8.177212|    0.824007|    0.012015|
|         178|   -5.731998|   -8.182121|    0.824005|    0.012015|
|         179|   -5.736897|   -8.185741|    0.824004|    0.012015|
|         180|   -5.741442|   -8.187996|    0.824004|    0.012015|
|         181|   -5.745624|   -8.188869|    0.824003|    0.012015|
|         182|   -5.749449|   -8.188411|    0.824002|    0.012015|
|         183|   -5.752936|   -8.186734|    0.824002|    0.012015|
|         184|   -5.756116|   -8.184008|    0.824001|    0.012014|
|         185|   -5.759029|   -8.180446|    0.824001|    0.012014|
|         186|   -5.761727|   -8.176288|    0.824001|    0.012014|
|         187|   -5.764271|   -8.171790|    0.824001|    0.012014|
|         188|   -5.766725|   -8.167200|    0.824001|    0.012014|
|         189|   -5.769159|   -8.162759|    0.824001|    0.012014|
|         190|   -5.771643|   -8.158685|    0.824002|    0.012014|
|         191|   -5.774246|   -8.155173|    0.824002|    0.012014|
|         192|   -5.777035|   -8.152391|    0.824003|    0.012014|
|         193|   -5.780072|   -8.150481|    0.824003|    0.012014|
|         194|   -5.783409|   -8.149556|    0.824004|    0.012014|
|         195|   -5.787093|   -8.149707|    0.824005|    0.012014|
|         196|   -5.791158|   -8.151001|    0.824005|    0.012014|
|         197|   -5.795628|   -8.153482|    0.824006|    0.012014|
|         198|   -5.800515|   -8.157176|    0.824007|    0.012014|
|         199|   -5.805818|   -8.162086|    0.824008|    0.012014|
|         200|   -5.811521|   -8.168194|    0.824009|    0.012014|
|         201|   -5.817598|   -8.175462|    0.824010|    0.012013|
+-----------------------------------------------------------------------+
|Fixed CL Mode                           |Value                         |
+-----------------------------------------------------------------------+
|Current CL                              |0.82401                       |
|Target CL                               |0.824                         |
|Previous AOA                            |2.78874                       |
|Changed AoA by                          |-4.50298e-05                  |
+-----------------------------------------------------------------------+
+----------------------------------------------------------------+
|  Inner_Iter|    rms[Rho]|     rms[nu]|          CL|          CD|
+----------------------------------------------------------------+
|         202|   -4.539271|   -8.156759|    0.824011|    0.012013|
|         203|   -4.918556|   -8.177854|    0.824012|    0.012013|
|         204|   -5.146923|   -8.191531|    0.824013|    0.012013|
|         205|   -5.216018|   -8.204448|    0.824014|    0.012013|
|         206|   -5.264721|   -8.217502|    0.824015|    0.012013|
|         207|   -5.328776|   -8.230739|    0.824016|    0.012013|
|         208|   -5.407004|   -8.244004|    0.824017|    0.012013|
|         209|   -5.487555|   -8.257076|    0.824018|    0.012013|
|         210|   -5.557173|   -8.269679|    0.824019|    0.012013|
|         211|   -5.610112|   -8.281487|    0.824020|    0.012013|
|         212|   -5.647790|   -8.292173|    0.824021|    0.012013|
|         213|   -5.672585|   -8.301474|    0.824022|    0.012013|
|         214|   -5.686676|   -8.309215|    0.824023|    0.012013|
|         215|   -5.694078|   -8.315292|    0.824023|    0.012013|
|         216|   -5.700020|   -8.319666|    0.824024|    0.012013|
|         217|   -5.708438|   -8.322376|    0.824025|    0.012013|
|         218|   -5.720641|   -8.323547|    0.824026|    0.012013|
|         219|   -5.735661|   -8.323382|    0.824026|    0.012013|
|         220|   -5.751548|   -8.322137|    0.824027|    0.012013|
|         221|   -5.766771|   -8.320083|    0.824027|    0.012013|
|         222|   -5.780985|   -8.317481|    0.824027|    0.012013|
|         223|   -5.794799|   -8.314558|    0.824028|    0.012014|
|         224|   -5.808966|   -8.311514|    0.824028|    0.012014|
|         225|   -5.823732|   -8.308518|    0.824028|    0.012014|
|         226|   -5.838700|   -8.305723|    0.824028|    0.012014|
|         227|   -5.853103|   -8.303246|    0.824029|    0.012014|
|         228|   -5.866186|   -8.301180|    0.824029|    0.012014|
|         229|   -5.877471|   -8.299599|    0.824028|    0.012014|
|         230|   -5.886859|   -8.298551|    0.824028|    0.012014|
|         231|   -5.894601|   -8.298066|    0.824028|    0.012014|
|         232|   -5.901226|   -8.298144|    0.824028|    0.012014|
|         233|   -5.907439|   -8.298772|    0.824028|    0.012014|
|         234|   -5.913987|   -8.299919|    0.824027|    0.012014|
|         235|   -5.921517|   -8.301536|    0.824027|    0.012014|
|         236|   -5.930462|   -8.303566|    0.824027|    0.012014|
|         237|   -5.940981|   -8.305942|    0.824026|    0.012014|
|         238|   -5.952939|   -8.308593|    0.824026|    0.012014|
|         239|   -5.965929|   -8.311447|    0.824025|    0.012015|
|         240|   -5.979321|   -8.314439|    0.824025|    0.012015|
|         241|   -5.992344|   -8.317508|    0.824024|    0.012015|
|         242|   -6.004223|   -8.320601|    0.824024|    0.012015|
|         243|   -6.014346|   -8.323674|    0.824023|    0.012015|
|         244|   -6.022415|   -8.326698|    0.824023|    0.012015|
|         245|   -6.028510|   -8.329655|    0.824022|    0.012015|
|         246|   -6.033043|   -8.332541|    0.824021|    0.012015|
|         247|   -6.036602|   -8.335361|    0.824021|    0.012015|
|         248|   -6.039779|   -8.338131|    0.824020|    0.012015|
|         249|   -6.043034|   -8.340872|    0.824019|    0.012015|
|         250|   -6.046620|   -8.343611|    0.824019|    0.012015|
|         251|   -6.050588|   -8.346374|    0.824018|    0.012015|
|         252|   -6.054826|   -8.349188|    0.824018|    0.012015|
|         253|   -6.059137|   -8.352081|    0.824017|    0.012015|
|         254|   -6.063311|   -8.355066|    0.824016|    0.012015|
|         255|   -6.067193|   -8.358150|    0.824016|    0.012015|
|         256|   -6.070719|   -8.361332|    0.824015|    0.012015|
|         257|   -6.073926|   -8.364602|    0.824015|    0.012016|
|         258|   -6.076933|   -8.367941|    0.824014|    0.012016|
|         259|   -6.079911|   -8.371319|    0.824013|    0.012016|
|         260|   -6.083041|   -8.374701|    0.824013|    0.012016|
|         261|   -6.086486|   -8.378043|    0.824012|    0.012016|
|         262|   -6.090375|   -8.381302|    0.824012|    0.012016|
|         263|   -6.094794|   -8.384433|    0.824011|    0.012016|
|         264|   -6.099789|   -8.387398|    0.824010|    0.012016|
|         265|   -6.105381|   -8.390169|    0.824010|    0.012016|
|         266|   -6.111569|   -8.392730|    0.824009|    0.012016|
|         267|   -6.118348|   -8.395078|    0.824009|    0.012016|
|         268|   -6.125709|   -8.397231|    0.824008|    0.012016|
|         269|   -6.133642|   -8.399224|    0.824007|    0.012016|
|         270|   -6.142141|   -8.401106|    0.824007|    0.012016|
|         271|   -6.151193|   -8.402944|    0.824006|    0.012016|
|         272|   -6.160780|   -8.404814|    0.824006|    0.012016|
|         273|   -6.170876|   -8.406798|    0.824005|    0.012016|
|         274|   -6.181437|   -8.408981|    0.824004|    0.012016|
|         275|   -6.192410|   -8.411443|    0.824004|    0.012016|
|         276|   -6.203720|   -8.414257|    0.824003|    0.012016|
|         277|   -6.215281|   -8.417486|    0.824003|    0.012016|
|         278|   -6.226991|   -8.421168|    0.824002|    0.012016|
|         279|   -6.238737|   -8.425322|    0.824002|    0.012016|
|         280|   -6.250393|   -8.429944|    0.824001|    0.012016|
|         281|   -6.261828|   -8.434999|    0.824001|    0.012016|
|         282|   -6.272907|   -8.440429|    0.824000|    0.012016|
|         283|   -6.283494|   -8.446139|    0.824000|    0.012016|
|         284|   -6.293461|   -8.452014|    0.823999|    0.012016|
|         285|   -6.302687|   -8.457910|    0.823999|    0.012016|
|         286|   -6.311071|   -8.463664|    0.823998|    0.012016|
|         287|   -6.318532|   -8.469098|    0.823998|    0.012016|
|         288|   -6.325013|   -8.474035|    0.823998|    0.012016|
|         289|   -6.330488|   -8.478311|    0.823997|    0.012015|
|         290|   -6.334958|   -8.481793|    0.823997|    0.012015|
|         291|   -6.338457|   -8.484387|    0.823997|    0.012015|
|         292|   -6.341039|   -8.486052|    0.823996|    0.012015|
|         293|   -6.342784|   -8.486804|    0.823996|    0.012015|
|         294|   -6.343787|   -8.486720|    0.823996|    0.012015|
|         295|   -6.344157|   -8.485927|    0.823996|    0.012015|
|         296|   -6.344006|   -8.484595|    0.823996|    0.012015|
|         297|   -6.343451|   -8.482923|    0.823996|    0.012015|
|         298|   -6.342604|   -8.481123|    0.823996|    0.012015|
|         299|   -6.341572|   -8.479408|    0.823995|    0.012015|
|         300|   -6.340458|   -8.477979|    0.823995|    0.012015|
|         301|   -6.339351|   -8.477018|    0.823995|    0.012015|
+-----------------------------------------------------------------------+
|Fixed CL Mode                           |Value                         |
+-----------------------------------------------------------------------+
|Current CL                              |0.823995                      |
|Target CL                               |0.824                         |
|Previous AOA                            |2.7887                        |
|Changed AoA by                          |2.27706e-05                   |
+-----------------------------------------------------------------------+
+----------------------------------------------------------------+
|  Inner_Iter|    rms[Rho]|     rms[nu]|          CL|          CD|
+----------------------------------------------------------------+
|         302|   -4.835841|   -8.453950|    0.823995|    0.012015|
|         303|   -5.222264|   -8.466407|    0.823996|    0.012015|
|         304|   -5.475352|   -8.470993|    0.823996|    0.012015|
|         305|   -5.560946|   -8.474735|    0.823996|    0.012015|
|         306|   -5.616752|   -8.478793|    0.823996|    0.012015|
|         307|   -5.686587|   -8.483426|    0.823996|    0.012015|
|         308|   -5.770632|   -8.488658|    0.823996|    0.012015|
|         309|   -5.853657|   -8.494431|    0.823996|    0.012015|
|         310|   -5.917297|   -8.500627|    0.823996|    0.012015|
|         311|   -5.955622|   -8.507081|    0.823996|    0.012015|
|         312|   -5.975101|   -8.513596|    0.823997|    0.012015|
|         313|   -5.983136|   -8.519982|    0.823997|    0.012015|
|         314|   -5.984871|   -8.526049|    0.823997|    0.012015|
|         315|   -5.985131|   -8.531589|    0.823997|    0.012015|
|         316|   -5.988289|   -8.536377|    0.823997|    0.012015|
|         317|   -5.996851|   -8.540190|    0.823997|    0.012015|
|         318|   -6.010837|   -8.542847|    0.823998|    0.012014|
|         319|   -6.028229|   -8.544232|    0.823998|    0.012014|
|         320|   -6.046162|   -8.544306|    0.823998|    0.012014|
|         321|   -6.062366|   -8.543105|    0.823998|    0.012014|
|         322|   -6.076137|   -8.540732|    0.823998|    0.012015|
|         323|   -6.088201|   -8.537347|    0.823998|    0.012015|
|         324|   -6.099790|   -8.533155|    0.823998|    0.012015|
|         325|   -6.111797|   -8.528384|    0.823998|    0.012015|
|         326|   -6.124483|   -8.523270|    0.823998|    0.012015|
|         327|   -6.137620|   -8.518044|    0.823998|    0.012015|
|         328|   -6.150738|   -8.512915|    0.823998|    0.012015|
|         329|   -6.163318|   -8.508064|    0.823998|    0.012015|
|         330|   -6.174889|   -8.503638|    0.823998|    0.012015|
|         331|   -6.185123|   -8.499750|    0.823998|    0.012015|
|         332|   -6.193933|   -8.496481|    0.823998|    0.012015|
|         333|   -6.201542|   -8.493884|    0.823998|    0.012015|
|         334|   -6.208450|   -8.491984|    0.823998|    0.012015|
|         335|   -6.215307|   -8.490779|    0.823998|    0.012015|
|         336|   -6.222738|   -8.490248|    0.823998|    0.012015|
|         337|   -6.231213|   -8.490351|    0.823998|    0.012015|
|         338|   -6.240968|   -8.491029|    0.823998|    0.012015|
|         339|   -6.251977|   -8.492213|    0.823998|    0.012015|
|         340|   -6.263970|   -8.493813|    0.823998|    0.012015|
|         341|   -6.276491|   -8.495736|    0.823998|    0.012015|
|         342|   -6.288988|   -8.497893|    0.823998|    0.012015|
|         343|   -6.300955|   -8.500191|    0.823998|    0.012015|
|         344|   -6.312059|   -8.502541|    0.823997|    0.012015|
|         345|   -6.322240|   -8.504855|    0.823997|    0.012015|
|         346|   -6.331708|   -8.507054|    0.823997|    0.012015|
|         347|   -6.340869|   -8.509067|    0.823997|    0.012015|
|         348|   -6.350185|   -8.510836|    0.823997|    0.012015|
|         349|   -6.360047|   -8.512319|    0.823997|    0.012015|
|         350|   -6.370686|   -8.513484|    0.823997|    0.012015|
|         351|   -6.382125|   -8.514320|    0.823997|    0.012015|
|         352|   -6.394196|   -8.514826|    0.823997|    0.012016|
|         353|   -6.406578|   -8.515016|    0.823997|    0.012016|
|         354|   -6.418871|   -8.514912|    0.823997|    0.012016|
|         355|   -6.430666|   -8.514545|    0.823997|    0.012016|
|         356|   -6.441625|   -8.513956|    0.823997|    0.012016|
|         357|   -6.451520|   -8.513184|    0.823998|    0.012016|
|         358|   -6.460255|   -8.512266|    0.823998|    0.012016|
|         359|   -6.467842|   -8.511241|    0.823998|    0.012016|
|         360|   -6.474368|   -8.510143|    0.823998|    0.012016|
|         361|   -6.479943|   -8.509000|    0.823998|    0.012016|
|         362|   -6.484671|   -8.507837|    0.823998|    0.012016|
|         363|   -6.488628|   -8.506674|    0.823998|    0.012016|
|         364|   -6.491858|   -8.505522|    0.823998|    0.012016|
|         365|   -6.494386|   -8.504393|    0.823998|    0.012016|
|         366|   -6.496232|   -8.503291|    0.823998|    0.012016|
|         367|   -6.497424|   -8.502219|    0.823998|    0.012016|
|         368|   -6.498007|   -8.501177|    0.823998|    0.012016|
|         369|   -6.498045|   -8.500165|    0.823998|    0.012016|
|         370|   -6.497620|   -8.499183|    0.823998|    0.012016|
|         371|   -6.496824|   -8.498230|    0.823998|    0.012016|
|         372|   -6.495751|   -8.497310|    0.823998|    0.012016|
|         373|   -6.494497|   -8.496426|    0.823998|    0.012016|
|         374|   -6.493152|   -8.495585|    0.823998|    0.012016|
|         375|   -6.491798|   -8.494795|    0.823998|    0.012016|
|         376|   -6.490513|   -8.494068|    0.823998|    0.012016|
|         377|   -6.489368|   -8.493414|    0.823998|    0.012016|
|         378|   -6.488427|   -8.492847|    0.823998|    0.012016|
|         379|   -6.487749|   -8.492384|    0.823998|    0.012016|
|         380|   -6.487389|   -8.492038|    0.823998|    0.012016|
|         381|   -6.487392|   -8.491825|    0.823998|    0.012016|
|         382|   -6.487801|   -8.491758|    0.823998|    0.012016|
|         383|   -6.488650|   -8.491849|    0.823998|    0.012016|
|         384|   -6.489967|   -8.492107|    0.823997|    0.012016|
|         385|   -6.491771|   -8.492540|    0.823997|    0.012016|
|         386|   -6.494078|   -8.493152|    0.823997|    0.012016|
|         387|   -6.496895|   -8.493943|    0.823997|    0.012016|
|         388|   -6.500221|   -8.494910|    0.823997|    0.012016|
|         389|   -6.504054|   -8.496049|    0.823997|    0.012016|
|         390|   -6.508381|   -8.497350|    0.823996|    0.012016|
|         391|   -6.513187|   -8.498804|    0.823996|    0.012016|
|         392|   -6.518450|   -8.500396|    0.823996|    0.012016|
|         393|   -6.524141|   -8.502112|    0.823996|    0.012016|
|         394|   -6.530229|   -8.503936|    0.823995|    0.012016|
|         395|   -6.536676|   -8.505852|    0.823995|    0.012016|
|         396|   -6.543436|   -8.507844|    0.823995|    0.012016|
|         397|   -6.550462|   -8.509897|    0.823995|    0.012016|
|         398|   -6.557700|   -8.511997|    0.823994|    0.012016|
|         399|   -6.565090|   -8.514132|    0.823994|    0.012016|
|         400|   -6.572571|   -8.516292|    0.823994|    0.012016|
|         401|   -6.580076|   -8.518470|    0.823994|    0.012017|
+-----------------------------------------------------------------------+
|Fixed CL Mode                           |Value                         |
+-----------------------------------------------------------------------+
|Current CL                              |0.823994                      |
|Target CL                               |0.824                         |
|Previous AOA                            |2.78872                       |
|Changed AoA by                          |3.06151e-05                   |
+-----------------------------------------------------------------------+
+----------------------------------------------------------------+
|  Inner_Iter|    rms[Rho]|     rms[nu]|          CL|          CD|
+----------------------------------------------------------------+
|         402|   -4.707239|   -8.469668|    0.823993|    0.012017|
|         403|   -5.090490|   -8.496177|    0.823993|    0.012017|
|         404|   -5.332868|   -8.505777|    0.823993|    0.012017|
|         405|   -5.412477|   -8.511968|    0.823993|    0.012017|
|         406|   -5.467405|   -8.517008|    0.823993|    0.012016|
|         407|   -5.538056|   -8.521456|    0.823992|    0.012016|
|         408|   -5.624971|   -8.525498|    0.823992|    0.012016|
|         409|   -5.715463|   -8.529240|    0.823992|    0.012016|
|         410|   -5.792976|   -8.532746|    0.823992|    0.012016|
|         411|   -5.849127|   -8.536036|    0.823992|    0.012016|
|         412|   -5.885687|   -8.539137|    0.823991|    0.012016|
|         413|   -5.906677|   -8.542115|    0.823991|    0.012016|
|         414|   -5.916051|   -8.545065|    0.823991|    0.012016|
|         415|   -5.919653|   -8.548066|    0.823991|    0.012016|
|         416|   -5.924021|   -8.551144|    0.823991|    0.012016|
|         417|   -5.933518|   -8.554300|    0.823991|    0.012016|
|         418|   -5.949135|   -8.557532|    0.823991|    0.012016|
|         419|   -5.969054|   -8.560860|    0.823990|    0.012016|
|         420|   -5.990131|   -8.564309|    0.823990|    0.012016|
|         421|   -6.009710|   -8.567909|    0.823990|    0.012016|
|         422|   -6.026915|   -8.571663|    0.823990|    0.012016|
|         423|   -6.042561|   -8.575558|    0.823990|    0.012016|
|         424|   -6.058018|   -8.579569|    0.823990|    0.012016|
|         425|   -6.074132|   -8.583671|    0.823990|    0.012016|
|         426|   -6.090866|   -8.587840|    0.823990|    0.012016|
|         427|   -6.107540|   -8.592055|    0.823990|    0.012016|
|         428|   -6.123246|   -8.596303|    0.823990|    0.012016|
|         429|   -6.137161|   -8.600571|    0.823990|    0.012016|
|         430|   -6.148718|   -8.604852|    0.823990|    0.012016|
|         431|   -6.157698|   -8.609142|    0.823990|    0.012016|
|         432|   -6.164308|   -8.613437|    0.823990|    0.012016|
|         433|   -6.169171|   -8.617735|    0.823990|    0.012016|
|         434|   -6.173194|   -8.622037|    0.823990|    0.012016|
|         435|   -6.177333|   -8.626345|    0.823990|    0.012016|
|         436|   -6.182376|   -8.630659|    0.823990|    0.012016|
|         437|   -6.188792|   -8.634978|    0.823990|    0.012016|
|         438|   -6.196691|   -8.639302|    0.823990|    0.012016|
|         439|   -6.205828|   -8.643637|    0.823990|    0.012016|
|         440|   -6.215665|   -8.647986|    0.823990|    0.012016|
|         441|   -6.225471|   -8.652355|    0.823990|    0.012016|
|         442|   -6.234480|   -8.656754|    0.823990|    0.012016|
|         443|   -6.242088|   -8.661197|    0.823990|    0.012016|
|         444|   -6.248032|   -8.665699|    0.823990|    0.012016|
|         445|   -6.252465|   -8.670276|    0.823990|    0.012016|
|         446|   -6.255894|   -8.674946|    0.823990|    0.012016|
|         447|   -6.259010|   -8.679722|    0.823991|    0.012016|
|         448|   -6.262491|   -8.684618|    0.823991|    0.012016|
|         449|   -6.266849|   -8.689644|    0.823991|    0.012016|
|         450|   -6.272359|   -8.694810|    0.823991|    0.012016|
|         451|   -6.279043|   -8.700122|    0.823991|    0.012016|
|         452|   -6.286724|   -8.705585|    0.823991|    0.012016|
|         453|   -6.295092|   -8.711203|    0.823991|    0.012016|
|         454|   -6.303792|   -8.716972|    0.823992|    0.012016|
|         455|   -6.312503|   -8.722884|    0.823992|    0.012016|
|         456|   -6.321002|   -8.728953|    0.823992|    0.012016|
|         457|   -6.329192|   -8.735172|    0.823992|    0.012016|
|         458|   -6.337100|   -8.741535|    0.823992|    0.012016|
|         459|   -6.344843|   -8.748035|    0.823992|    0.012016|
|         460|   -6.352585|   -8.754658|    0.823993|    0.012016|
|         461|   -6.360491|   -8.761392|    0.823993|    0.012016|
|         462|   -6.368694|   -8.768220|    0.823993|    0.012016|
|         463|   -6.377276|   -8.775120|    0.823993|    0.012016|
|         464|   -6.386273|   -8.782069|    0.823993|    0.012016|
|         465|   -6.395675|   -8.789040|    0.823994|    0.012016|
|         466|   -6.405446|   -8.795998|    0.823994|    0.012016|
|         467|   -6.415535|   -8.802906|    0.823994|    0.012016|
|         468|   -6.425889|   -8.809722|    0.823994|    0.012016|
|         469|   -6.436454|   -8.816401|    0.823995|    0.012016|
|         470|   -6.447182|   -8.822890|    0.823995|    0.012016|
|         471|   -6.458022|   -8.829137|    0.823995|    0.012017|
|         472|   -6.468922|   -8.835084|    0.823995|    0.012017|
|         473|   -6.479818|   -8.840673|    0.823995|    0.012017|
|         474|   -6.490634|   -8.845845|    0.823995|    0.012017|
|         475|   -6.501285|   -8.850543|    0.823996|    0.012017|
|         476|   -6.511674|   -8.854723|    0.823996|    0.012017|
|         477|   -6.521697|   -8.858337|    0.823996|    0.012017|
|         478|   -6.531253|   -8.861356|    0.823996|    0.012017|
|         479|   -6.540245|   -8.863765|    0.823996|    0.012017|
|         480|   -6.548587|   -8.865557|    0.823996|    0.012017|
|         481|   -6.556212|   -8.866747|    0.823996|    0.012017|
|         482|   -6.563071|   -8.867371|    0.823996|    0.012017|
|         483|   -6.569138|   -8.867487|    0.823996|    0.012017|
|         484|   -6.574408|   -8.867168|    0.823996|    0.012017|
|         485|   -6.578900|   -8.866503|    0.823996|    0.012017|
|         486|   -6.582652|   -8.865588|    0.823996|    0.012017|
|         487|   -6.585719|   -8.864536|    0.823996|    0.012017|
|         488|   -6.588169|   -8.863461|    0.823996|    0.012017|
|         489|   -6.590080|   -8.862485|    0.823996|    0.012017|
|         490|   -6.591534|   -8.861727|    0.823996|    0.012017|
|         491|   -6.592614|   -8.861307|    0.823996|    0.012017|
|         492|   -6.593401|   -8.861338|    0.823995|    0.012017|
|         493|   -6.593972|   -8.861928|    0.823995|    0.012017|
|         494|   -6.594393|   -8.863175|    0.823995|    0.012017|
|         495|   -6.594726|   -8.865168|    0.823995|    0.012017|
|         496|   -6.595020|   -8.867983|    0.823995|    0.012017|
|         497|   -6.595316|   -8.871686|    0.823995|    0.012017|
|         498|   -6.595645|   -8.876328|    0.823994|    0.012017|
|         499|   -6.596031|   -8.881944|    0.823994|    0.012017|
|         500|   -6.596489|   -8.888553|    0.823994|    0.012017|
|         501|   -6.597026|   -8.896153|    0.823994|    0.012017|
+-----------------------------------------------------------------------+
|Fixed CL Mode                           |Value                         |
+-----------------------------------------------------------------------+
|Current CL                              |0.823994                      |
|Target CL                               |0.824                         |
|Previous AOA                            |2.78875                       |
|Changed AoA by                          |3.09311e-05                   |
+-----------------------------------------------------------------------+
+----------------------------------------------------------------+
|  Inner_Iter|    rms[Rho]|     rms[nu]|          CL|          CD|
+----------------------------------------------------------------+
|         502|   -4.702816|   -8.695011|    0.823993|    0.012017|
|         503|   -5.085617|   -8.780715|    0.823993|    0.012017|
|         504|   -5.325671|   -8.818025|    0.823993|    0.012017|
|         505|   -5.403346|   -8.844536|    0.823993|    0.012017|
|         506|   -5.457390|   -8.867720|    0.823992|    0.012017|
|         507|   -5.527485|   -8.889317|    0.823992|    0.012017|
|         508|   -5.614045|   -8.909692|    0.823992|    0.012017|
|         509|   -5.704808|   -8.928901|    0.823992|    0.012017|
|         510|   -5.783866|   -8.946748|    0.823991|    0.012017|
|         511|   -5.842869|   -8.962704|    0.823991|    0.012017|
|         512|   -5.882818|   -8.976246|    0.823991|    0.012017|
|         513|   -5.906800|   -8.987206|    0.823991|    0.012017|
|         514|   -5.918150|   -8.995791|    0.823990|    0.012017|
|         515|   -5.922662|   -9.002213|    0.823990|    0.012017|
|         516|   -5.927245|   -9.006452|    0.823990|    0.012017|
|         517|   -5.936673|   -9.008424|    0.823990|    0.012017|
|         518|   -5.952207|   -9.008197|    0.823990|    0.012017|
|         519|   -5.972173|   -9.006097|    0.823990|    0.012017|
|         520|   -5.993498|   -9.002612|    0.823989|    0.012017|
|         521|   -6.013566|   -8.998228|    0.823989|    0.012017|
|         522|   -6.031513|   -8.993280|    0.823989|    0.012017|
|         523|   -6.048142|   -8.987953|    0.823989|    0.012017|
|         524|   -6.064769|   -8.982374|    0.823989|    0.012017|
|         525|   -6.082145|   -8.976628|    0.823989|    0.012017|
|         526|   -6.100097|   -8.970810|    0.823989|    0.012017|
|         527|   -6.117793|   -8.965033|    0.823989|    0.012017|
|         528|   -6.134197|   -8.959426|    0.823989|    0.012017|
|         529|   -6.148441|   -8.954097|    0.823989|    0.012017|
|         530|   -6.160003|   -8.949128|    0.823989|    0.012017|
|         531|   -6.168796|   -8.944591|    0.823989|    0.012017|
|         532|   -6.175203|   -8.940528|    0.823989|    0.012017|
|         533|   -6.180015|   -8.936952|    0.823989|    0.012017|
|         534|   -6.184267|   -8.933845|    0.823989|    0.012017|
|         535|   -6.188982|   -8.931174|    0.823989|    0.012017|
|         536|   -6.194960|   -8.928879|    0.823989|    0.012017|
|         537|   -6.202647|   -8.926890|    0.823989|    0.012017|
|         538|   -6.212095|   -8.925140|    0.823989|    0.012017|
|         539|   -6.222982|   -8.923555|    0.823989|    0.012017|
|         540|   -6.234664|   -8.922077|    0.823989|    0.012017|
|         541|   -6.246284|   -8.920672|    0.823990|    0.012017|
|         542|   -6.256944|   -8.919313|    0.823990|    0.012017|
|         543|   -6.265929|   -8.917991|    0.823990|    0.012017|
|         544|   -6.272921|   -8.916729|    0.823990|    0.012017|
|         545|   -6.278096|   -8.915537|    0.823990|    0.012017|
|         546|   -6.282052|   -8.914440|    0.823990|    0.012017|
|         547|   -6.285603|   -8.913469|    0.823990|    0.012017|
|         548|   -6.289550|   -8.912650|    0.823991|    0.012017|
|         549|   -6.294502|   -8.912002|    0.823991|    0.012017|
|         550|   -6.300783|   -8.911539|    0.823991|    0.012017|
|         551|   -6.308434|   -8.911268|    0.823991|    0.012017|
|         552|   -6.317252|   -8.911188|    0.823991|    0.012017|
|         553|   -6.326878|   -8.911298|    0.823991|    0.012017|
|         554|   -6.336893|   -8.911587|    0.823992|    0.012017|
|         555|   -6.346905|   -8.912022|    0.823992|    0.012017|
|         556|   -6.356634|   -8.912599|    0.823992|    0.012017|
|         557|   -6.365944|   -8.913314|    0.823992|    0.012017|
|         558|   -6.374850|   -8.914153|    0.823993|    0.012017|
|         559|   -6.383478|   -8.915104|    0.823993|    0.012017|
|         560|   -6.392015|   -8.916159|    0.823993|    0.012017|
|         561|   -6.400654|   -8.917314|    0.823993|    0.012017|
|         562|   -6.409550|   -8.918571|    0.823994|    0.012017|
|         563|   -6.418806|   -8.919943|    0.823994|    0.012017|
|         564|   -6.428463|   -8.921458|    0.823994|    0.012017|
|         565|   -6.438514|   -8.923140|    0.823994|    0.012017|
|         566|   -6.448923|   -8.925028|    0.823995|    0.012017|
|         567|   -6.459638|   -8.927163|    0.823995|    0.012017|
|         568|   -6.470609|   -8.929588|    0.823995|    0.012017|
|         569|   -6.481793|   -8.932344|    0.823996|    0.012017|
|         570|   -6.493156|   -8.935466|    0.823996|    0.012017|
|         571|   -6.504669|   -8.938980|    0.823996|    0.012017|
|         572|   -6.516304|   -8.942899|    0.823996|    0.012017|
|         573|   -6.528023|   -8.947215|    0.823997|    0.012017|
|         574|   -6.539779|   -8.951899|    0.823997|    0.012017|
|         575|   -6.551508|   -8.956893|    0.823997|    0.012017|
|         576|   -6.563136|   -8.962123|    0.823997|    0.012017|
|         577|   -6.574574|   -8.967466|    0.823997|    0.012017|
|         578|   -6.585732|   -8.972778|    0.823998|    0.012017|
|         579|   -6.596517|   -8.977894|    0.823998|    0.012017|
|         580|   -6.606840|   -8.982625|    0.823998|    0.012017|
|         581|   -6.616623|   -8.986771|    0.823998|    0.012017|
|         582|   -6.625801|   -8.990137|    0.823998|    0.012017|
|         583|   -6.634324|   -8.992549|    0.823998|    0.012017|
|         584|   -6.642163|   -8.993869|    0.823999|    0.012017|
|         585|   -6.649307|   -8.994013|    0.823999|    0.012017|
|         586|   -6.655767|   -8.992960|    0.823999|    0.012017|
|         587|   -6.661572|   -8.990755|    0.823999|    0.012017|
|         588|   -6.666766|   -8.987512|    0.823999|    0.012017|
|         589|   -6.671409|   -8.983400|    0.823999|    0.012017|
|         590|   -6.675573|   -8.978629|    0.823999|    0.012017|
|         591|   -6.679333|   -8.973436|    0.823999|    0.012017|
|         592|   -6.682769|   -8.968069|    0.823999|    0.012017|
|         593|   -6.685960|   -8.962768|    0.823999|    0.012017|
|         594|   -6.688982|   -8.957761|    0.823998|    0.012017|
|         595|   -6.691903|   -8.953249|    0.823998|    0.012017|
|         596|   -6.694786|   -8.949407|    0.823998|    0.012017|
|         597|   -6.697683|   -8.946378|    0.823998|    0.012017|
|         598|   -6.700638|   -8.944271|    0.823998|    0.012017|
|         599|   -6.703686|   -8.943162|    0.823998|    0.012017|
|         600|   -6.706854|   -8.943096|    0.823998|    0.012017|
|         601|   -6.710162|   -8.944081|    0.823997|    0.012017|
+-----------------------------------------------------------------------+
|Fixed CL Mode                           |Value                         |
+-----------------------------------------------------------------------+
|Current CL                              |0.823997                      |
|Target CL                               |0.824                         |
|Previous AOA                            |2.78878                       |
|Changed AoA by                          |1.17343e-05                   |
+-----------------------------------------------------------------------+
+----------------------------------------------------------------+
|  Inner_Iter|    rms[Rho]|     rms[nu]|          CL|          CD|
+----------------------------------------------------------------+
|         602|   -5.123634|   -8.889853|    0.823997|    0.012017|
|         603|   -5.504570|   -8.917964|    0.823997|    0.012017|
|         604|   -5.738273|   -8.929820|    0.823997|    0.012017|
|         605|   -5.811663|   -8.938937|    0.823997|    0.012017|
|         606|   -5.863574|   -8.947350|    0.823997|    0.012017|
|         607|   -5.931557|   -8.955391|    0.823996|    0.012017|
|         608|   -6.015469|   -8.963023|    0.823996|    0.012017|
|         609|   -6.103707|   -8.970111|    0.823996|    0.012017|
|         610|   -6.181989|   -8.976426|    0.823996|    0.012017|
|         611|   -6.243009|   -8.981664|    0.823996|    0.012017|
|         612|   -6.287186|   -8.985515|    0.823995|    0.012017|
|         613|   -6.316205|   -8.987759|    0.823995|    0.012017|
|         614|   -6.331986|   -8.988270|    0.823995|    0.012017|
|         615|   -6.339447|   -8.986986|    0.823995|    0.012017|
|         616|   -6.345424|   -8.983907|    0.823995|    0.012017|
|         617|   -6.355090|   -8.979108|    0.823995|    0.012017|
|         618|   -6.370181|   -8.972766|    0.823994|    0.012017|
|         619|   -6.389466|   -8.965149|    0.823994|    0.012017|
|         620|   -6.410293|   -8.956577|    0.823994|    0.012017|
|         621|   -6.430393|   -8.947371|    0.823994|    0.012017|
|         622|   -6.449061|   -8.937829|    0.823994|    0.012017|
|         623|   -6.467020|   -8.928206|    0.823994|    0.012017|
|         624|   -6.485345|   -8.918719|    0.823994|    0.012017|
|         625|   -6.504459|   -8.909549|    0.823994|    0.012017|
|         626|   -6.523836|   -8.900849|    0.823993|    0.012017|
|         627|   -6.542298|   -8.892743|    0.823993|    0.012017|
|         628|   -6.558565|   -8.885325|    0.823993|    0.012017|
|         629|   -6.571702|   -8.878665|    0.823993|    0.012017|
|         630|   -6.581347|   -8.872808|    0.823993|    0.012017|
|         631|   -6.587745|   -8.867776|    0.823993|    0.012017|
|         632|   -6.591650|   -8.863570|    0.823993|    0.012017|
|         633|   -6.594148|   -8.860173|    0.823993|    0.012017|
|         634|   -6.596409|   -8.857551|    0.823993|    0.012017|
|         635|   -6.599438|   -8.855654|    0.823993|    0.012017|
|         636|   -6.603905|   -8.854421|    0.823993|    0.012017|
|         637|   -6.610071|   -8.853783|    0.823993|    0.012017|
|         638|   -6.617795|   -8.853662|    0.823993|    0.012017|
|         639|   -6.626584|   -8.853979|    0.823993|    0.012017|
|         640|   -6.635687|   -8.854650|    0.823993|    0.012017|
|         641|   -6.644223|   -8.855596|    0.823993|    0.012017|
|         642|   -6.651372|   -8.856738|    0.823994|    0.012017|
|         643|   -6.656582|   -8.858004|    0.823994|    0.012017|
|         644|   -6.659727|   -8.859327|    0.823994|    0.012017|
|         645|   -6.661137|   -8.860649|    0.823994|    0.012017|
|         646|   -6.661471|   -8.861921|    0.823994|    0.012017|
|         647|   -6.661518|   -8.863101|    0.823994|    0.012017|
|         648|   -6.661985|   -8.864159|    0.823994|    0.012017|
|         649|   -6.663370|   -8.865072|    0.823994|    0.012017|
|         650|   -6.665909|   -8.865826|    0.823994|    0.012017|
|         651|   -6.669595|   -8.866414|    0.823994|    0.012017|
|         652|   -6.674239|   -8.866835|    0.823994|    0.012017|
|         653|   -6.679544|   -8.867092|    0.823994|    0.012017|
|         654|   -6.685195|   -8.867193|    0.823994|    0.012017|
|         655|   -6.690925|   -8.867148|    0.823994|    0.012017|
|         656|   -6.696565|   -8.866966|    0.823995|    0.012017|
|         657|   -6.702058|   -8.866665|    0.823995|    0.012017|
|         658|   -6.707450|   -8.866246|    0.823995|    0.012017|
|         659|   -6.712854|   -8.865723|    0.823995|    0.012017|
|         660|   -6.718413|   -8.865108|    0.823995|    0.012017|
|         661|   -6.724260|   -8.864413|    0.823995|    0.012017|
|         662|   -6.730495|   -8.863650|    0.823995|    0.012017|
|         663|   -6.737179|   -8.862835|    0.823995|    0.012017|
|         664|   -6.744329|   -8.861987|    0.823995|    0.012017|
|         665|   -6.751933|   -8.861122|    0.823995|    0.012017|
|         666|   -6.759958|   -8.860260|    0.823995|    0.012017|
|         667|   -6.768366|   -8.859430|    0.823996|    0.012017|
|         668|   -6.777120|   -8.858652|    0.823996|    0.012017|
|         669|   -6.786190|   -8.857956|    0.823996|    0.012017|
|         670|   -6.795551|   -8.857373|    0.823996|    0.012017|
|         671|   -6.805182|   -8.856933|    0.823996|    0.012017|
|         672|   -6.815061|   -8.856664|    0.823996|    0.012017|
|         673|   -6.825159|   -8.856593|    0.823996|    0.012017|
|         674|   -6.835441|   -8.856740|    0.823996|    0.012017|
|         675|   -6.845860|   -8.857126|    0.823996|    0.012017|
|         676|   -6.856359|   -8.857760|    0.823996|    0.012017|
|         677|   -6.866872|   -8.858647|    0.823996|    0.012017|
|         678|   -6.877326|   -8.859783|    0.823996|    0.012017|
|         679|   -6.887644|   -8.861155|    0.823997|    0.012017|
|         680|   -6.897748|   -8.862742|    0.823997|    0.012017|
|         681|   -6.907562|   -8.864514|    0.823997|    0.012017|
|         682|   -6.917011|   -8.866437|    0.823997|    0.012017|
|         683|   -6.926029|   -8.868468|    0.823997|    0.012017|
|         684|   -6.934560|   -8.870559|    0.823997|    0.012017|
|         685|   -6.942555|   -8.872660|    0.823997|    0.012017|
|         686|   -6.949982|   -8.874723|    0.823997|    0.012017|
|         687|   -6.956820|   -8.876697|    0.823997|    0.012017|
|         688|   -6.963060|   -8.878541|    0.823997|    0.012017|
|         689|   -6.968710|   -8.880216|    0.823997|    0.012017|
|         690|   -6.973789|   -8.881697|    0.823997|    0.012017|
|         691|   -6.978327|   -8.882968|    0.823997|    0.012017|
|         692|   -6.982361|   -8.884024|    0.823997|    0.012017|
|         693|   -6.985937|   -8.884876|    0.823997|    0.012017|
|         694|   -6.989104|   -8.885544|    0.823997|    0.012017|
|         695|   -6.991913|   -8.886061|    0.823997|    0.012017|
|         696|   -6.994416|   -8.886468|    0.823997|    0.012017|
|         697|   -6.996665|   -8.886813|    0.823997|    0.012017|
|         698|   -6.998707|   -8.887148|    0.823997|    0.012017|
|         699|   -7.000590|   -8.887527|    0.823997|    0.012017|
|         700|   -7.002356|   -8.888001|    0.823997|    0.012017|
|         701|   -7.004047|   -8.888618|    0.823997|    0.012017|
+-----------------------------------------------------------------------+
|Fixed CL Mode                           |Value                         |
+-----------------------------------------------------------------------+
|Current CL                              |0.823997                      |
|Target CL                               |0.824                         |
|Previous AOA                            |2.78879                       |
|Changed AoA by                          |1.66198e-05                   |
+-----------------------------------------------------------------------+
+----------------------------------------------------------------+
|  Inner_Iter|    rms[Rho]|     rms[nu]|          CL|          CD|
+----------------------------------------------------------------+
|         702|   -4.972742|   -8.810675|    0.823997|    0.012017|
|         703|   -5.356529|   -8.847489|    0.823996|    0.012017|
|         704|   -5.598007|   -8.860281|    0.823996|    0.012017|
|         705|   -5.675105|   -8.868234|    0.823996|    0.012017|
|         706|   -5.728130|   -8.874609|    0.823996|    0.012017|
|         707|   -5.797459|   -8.880193|    0.823996|    0.012017|
|         708|   -5.883561|   -8.885258|    0.823996|    0.012017|
|         709|   -5.974244|   -8.889959|    0.823996|    0.012017|
|         710|   -6.053708|   -8.894379|    0.823996|    0.012017|
|         711|   -6.113565|   -8.898510|    0.823996|    0.012017|
|         712|   -6.154610|   -8.902338|    0.823996|    0.012017|
|         713|   -6.179690|   -8.905916|    0.823996|    0.012017|
|         714|   -6.191945|   -8.909334|    0.823996|    0.012017|
|         715|   -6.197121|   -8.912648|    0.823996|    0.012017|
|         716|   -6.202229|   -8.915849|    0.823996|    0.012017|
|         717|   -6.212186|   -8.918886|    0.823995|    0.012017|
|         718|   -6.228356|   -8.921723|    0.823995|    0.012017|
|         719|   -6.249100|   -8.924359|    0.823995|    0.012017|
|         720|   -6.271324|   -8.926818|    0.823995|    0.012017|
|         721|   -6.292368|   -8.929125|    0.823995|    0.012017|
|         722|   -6.311349|   -8.931285|    0.823995|    0.012017|
|         723|   -6.329103|   -8.933285|    0.823995|    0.012017|
|         724|   -6.347003|   -8.935108|    0.823995|    0.012017|
|         725|   -6.365828|   -8.936740|    0.823995|    0.012017|
|         726|   -6.385372|   -8.938185|    0.823995|    0.012017|
|         727|   -6.404703|   -8.939462|    0.823995|    0.012017|
|         728|   -6.422641|   -8.940602|    0.823995|    0.012017|
|         729|   -6.438174|   -8.941645|    0.823995|    0.012017|
|         730|   -6.450684|   -8.942631|    0.823995|    0.012017|
|         731|   -6.460066|   -8.943600|    0.823995|    0.012017|
|         732|   -6.466772|   -8.944587|    0.823995|    0.012017|
|         733|   -6.471739|   -8.945620|    0.823995|    0.012017|
|         734|   -6.476171|   -8.946713|    0.823995|    0.012017|
|         735|   -6.481248|   -8.947872|    0.823995|    0.012017|
|         736|   -6.487888|   -8.949088|    0.823995|    0.012017|
|         737|   -6.496607|   -8.950346|    0.823995|    0.012017|
|         738|   -6.507476|   -8.951624|    0.823995|    0.012017|
|         739|   -6.520141|   -8.952899|    0.823995|    0.012017|
|         740|   -6.533868|   -8.954143|    0.823995|    0.012017|
|         741|   -6.547649|   -8.955333|    0.823995|    0.012017|
|         742|   -6.560388|   -8.956447|    0.823995|    0.012017|
|         743|   -6.571172|   -8.957468|    0.823995|    0.012017|
|         744|   -6.579547|   -8.958382|    0.823995|    0.012017|
|         745|   -6.585661|   -8.959182|    0.823995|    0.012017|
|         746|   -6.590199|   -8.959860|    0.823995|    0.012017|
|         747|   -6.594133|   -8.960414|    0.823995|    0.012017|
|         748|   -6.598434|   -8.960841|    0.823995|    0.012017|
|         749|   -6.603851|   -8.961141|    0.823995|    0.012017|
|         750|   -6.610797|   -8.961312|    0.823995|    0.012017|
|         751|   -6.619345|   -8.961353|    0.823996|    0.012017|
|         752|   -6.629277|   -8.961271|    0.823996|    0.012017|
|         753|   -6.640182|   -8.961066|    0.823996|    0.012017|
|         754|   -6.651564|   -8.960745|    0.823996|    0.012017|
|         755|   -6.662952|   -8.960320|    0.823996|    0.012017|
|         756|   -6.673999|   -8.959809|    0.823996|    0.012017|
|         757|   -6.684534|   -8.959217|    0.823996|    0.012017|
|         758|   -6.694570|   -8.958562|    0.823996|    0.012017|
|         759|   -6.704266|   -8.957885|    0.823996|    0.012017|
|         760|   -6.713860|   -8.957215|    0.823996|    0.012017|
|         761|   -6.723603|   -8.956588|    0.823996|    0.012017|
|         762|   -6.733706|   -8.956043|    0.823997|    0.012017|
|         763|   -6.744311|   -8.955617|    0.823997|    0.012017|
|         764|   -6.755490|   -8.955354|    0.823997|    0.012017|
|         765|   -6.767252|   -8.955295|    0.823997|    0.012017|
|         766|   -6.779570|   -8.955481|    0.823997|    0.012017|
|         767|   -6.792398|   -8.955949|    0.823997|    0.012017|
|         768|   -6.805691|   -8.956736|    0.823997|    0.012017|
|         769|   -6.819414|   -8.957869|    0.823998|    0.012017|
|         770|   -6.833547|   -8.959369|    0.823998|    0.012017|
|         771|   -6.848079|   -8.961256|    0.823998|    0.012017|
|         772|   -6.863000|   -8.963523|    0.823998|    0.012017|
|         773|   -6.878289|   -8.966161|    0.823998|    0.012017|
|         774|   -6.893912|   -8.969149|    0.823998|    0.012017|
|         775|   -6.909812|   -8.972449|    0.823998|    0.012017|
|         776|   -6.925907|   -8.976017|    0.823998|    0.012017|
|         777|   -6.942090|   -8.979789|    0.823998|    0.012017|
|         778|   -6.958235|   -8.983694|    0.823999|    0.012017|
|         779|   -6.974196|   -8.987649|    0.823999|    0.012017|
|         780|   -6.989817|   -8.991563|    0.823999|    0.012017|
|         781|   -7.004936|   -8.995345|    0.823999|    0.012017|
|         782|   -7.019388|   -8.998903|    0.823999|    0.012017|
|         783|   -7.033022|   -9.002151|    0.823999|    0.012017|
|         784|   -7.045699|   -9.005018|    0.823999|    0.012017|
|         785|   -7.057304|   -9.007445|    0.823999|    0.012017|
|         786|   -7.067758|   -9.009397|    0.823999|    0.012017|
|         787|   -7.077014|   -9.010859|    0.823999|    0.012017|
|         788|   -7.085068|   -9.011844|    0.823999|    0.012017|
|         789|   -7.091958|   -9.012386|    0.823999|    0.012017|
|         790|   -7.097756|   -9.012541|    0.823999|    0.012017|
|         791|   -7.102566|   -9.012384|    0.823999|    0.012017|
|         792|   -7.106510|   -9.012002|    0.823999|    0.012017|
|         793|   -7.109726|   -9.011492|    0.823999|    0.012017|
|         794|   -7.112355|   -9.010954|    0.823999|    0.012017|
|         795|   -7.114531|   -9.010487|    0.823999|    0.012017|
|         796|   -7.116382|   -9.010182|    0.823999|    0.012017|
|         797|   -7.118020|   -9.010125|    0.823999|    0.012017|
|         798|   -7.119543|   -9.010387|    0.823999|    0.012017|
|         799|   -7.121032|   -9.011028|    0.823999|    0.012017|
|         800|   -7.122555|   -9.012092|    0.823998|    0.012017|
|         801|   -7.124161|   -9.013607|    0.823998|    0.012017|
+-----------------------------------------------------------------------+
|Fixed CL Mode                           |Value                         |
+-----------------------------------------------------------------------+
|Current CL                              |0.823998                      |
|Target CL                               |0.824                         |
|Previous AOA                            |2.78881                       |
|Changed AoA by                          |7.87763e-06                   |
+-----------------------------------------------------------------------+
+----------------------------------------------------------------+
|  Inner_Iter|    rms[Rho]|     rms[nu]|          CL|          CD|
+----------------------------------------------------------------+
|         802|   -5.296932|   -8.980115|    0.823998|    0.012017|
|         803|   -5.680057|   -8.999344|    0.823998|    0.012017|
|         804|   -5.919355|   -9.007376|    0.823998|    0.012017|
|         805|   -5.995021|   -9.013507|    0.823998|    0.012017|
|         806|   -6.047301|   -9.019167|    0.823998|    0.012017|
|         807|   -6.115810|   -9.024652|    0.823998|    0.012017|
|         808|   -6.200815|   -9.030024|    0.823998|    0.012017|
|         809|   -6.290372|   -9.035293|    0.823998|    0.012017|
|         810|   -6.369352|   -9.040437|    0.823997|    0.012017|
|         811|   -6.429875|   -9.045384|    0.823997|    0.012017|
|         812|   -6.472594|   -9.050065|    0.823997|    0.012017|
|         813|   -6.499808|   -9.054442|    0.823997|    0.012017|
|         814|   -6.514042|   -9.058501|    0.823997|    0.012017|
|         815|   -6.520628|   -9.062224|    0.823997|    0.012017|
|         816|   -6.526522|   -9.065582|    0.823997|    0.012017|
|         817|   -6.536813|   -9.068534|    0.823997|    0.012017|
|         818|   -6.553085|   -9.071067|    0.823997|    0.012017|
|         819|   -6.573910|   -9.073198|    0.823997|    0.012017|
|         820|   -6.596398|   -9.074966|    0.823997|    0.012017|
|         821|   -6.618057|   -9.076422|    0.823997|    0.012017|
|         822|   -6.638095|   -9.077617|    0.823997|    0.012017|
|         823|   -6.657337|   -9.078603|    0.823996|    0.012017|
|         824|   -6.677078|   -9.079429|    0.823996|    0.012017|
|         825|   -6.697960|   -9.080149|    0.823996|    0.012017|
|         826|   -6.719587|   -9.080825|    0.823996|    0.012017|
|         827|   -6.740779|   -9.081524|    0.823996|    0.012017|
|         828|   -6.760107|   -9.082312|    0.823996|    0.012017|
|         829|   -6.776373|   -9.083254|    0.823996|    0.012017|
|         830|   -6.788912|   -9.084408|    0.823996|    0.012017|
|         831|   -6.797735|   -9.085824|    0.823996|    0.012017|
|         832|   -6.803520|   -9.087542|    0.823996|    0.012017|
|         833|   -6.807453|   -9.089587|    0.823996|    0.012017|
|         834|   -6.810933|   -9.091972|    0.823996|    0.012017|
|         835|   -6.815244|   -9.094697|    0.823996|    0.012017|
|         836|   -6.821312|   -9.097748|    0.823996|    0.012017|
|         837|   -6.829589|   -9.101104|    0.823996|    0.012017|
|         838|   -6.840043|   -9.104732|    0.823996|    0.012017|
|         839|   -6.852188|   -9.108597|    0.823996|    0.012017|
|         840|   -6.865154|   -9.112658|    0.823996|    0.012017|
|         841|   -6.877817|   -9.116872|    0.823996|    0.012017|
|         842|   -6.889015|   -9.121199|    0.823996|    0.012017|
|         843|   -6.897847|   -9.125598|    0.823996|    0.012017|
|         844|   -6.903949|   -9.130034|    0.823997|    0.012017|
|         845|   -6.907603|   -9.134474|    0.823997|    0.012017|
|         846|   -6.909621|   -9.138889|    0.823997|    0.012017|
|         847|   -6.911052|   -9.143254|    0.823997|    0.012017|
|         848|   -6.912887|   -9.147547|    0.823997|    0.012017|
|         849|   -6.915845|   -9.151753|    0.823997|    0.012017|
|         850|   -6.920295|   -9.155854|    0.823997|    0.012017|
|         851|   -6.926263|   -9.159836|    0.823997|    0.012017|
|         852|   -6.933510|   -9.163685|    0.823997|    0.012017|
|         853|   -6.941631|   -9.167388|    0.823997|    0.012017|
|         854|   -6.950166|   -9.170932|    0.823997|    0.012017|
|         855|   -6.958707|   -9.174304|    0.823997|    0.012017|
|         856|   -6.966977|   -9.177489|    0.823997|    0.012017|
|         857|   -6.974868|   -9.180471|    0.823997|    0.012017|
|         858|   -6.982436|   -9.183232|    0.823997|    0.012017|
|         859|   -6.989853|   -9.185768|    0.823997|    0.012017|
|         860|   -6.997350|   -9.188055|    0.823997|    0.012017|
|         861|   -7.005155|   -9.190077|    0.823997|    0.012017|
|         862|   -7.013454|   -9.191833|    0.823997|    0.012017|
|         863|   -7.022372|   -9.193325|    0.823997|    0.012017|
|         864|   -7.031970|   -9.194563|    0.823997|    0.012017|
|         865|   -7.042261|   -9.195570|    0.823998|    0.012017|
|         866|   -7.053228|   -9.196369|    0.823998|    0.012017|
|         867|   -7.064843|   -9.196996|    0.823998|    0.012017|
|         868|   -7.077079|   -9.197494|    0.823998|    0.012017|
|         869|   -7.089921|   -9.197910|    0.823998|    0.012017|
|         870|   -7.103366|   -9.198304|    0.823998|    0.012017|
|         871|   -7.117418|   -9.198730|    0.823998|    0.012017|
|         872|   -7.132080|   -9.199248|    0.823998|    0.012017|
|         873|   -7.147352|   -9.199909|    0.823998|    0.012017|
|         874|   -7.163215|   -9.200762|    0.823998|    0.012017|
|         875|   -7.179632|   -9.201845|    0.823998|    0.012017|
|         876|   -7.196542|   -9.203185|    0.823998|    0.012017|
|         877|   -7.213859|   -9.204802|    0.823998|    0.012017|
|         878|   -7.231468|   -9.206698|    0.823998|    0.012017|
|         879|   -7.249233|   -9.208866|    0.823998|    0.012017|
|         880|   -7.266988|   -9.211281|    0.823998|    0.012017|
|         881|   -7.284547|   -9.213907|    0.823998|    0.012017|
|         882|   -7.301702|   -9.216695|    0.823998|    0.012017|
|         883|   -7.318230|   -9.219583|    0.823998|    0.012017|
|         884|   -7.333900|   -9.222503|    0.823998|    0.012017|
|         885|   -7.348486|   -9.225381|    0.823998|    0.012017|
|         886|   -7.361774|   -9.228140|    0.823998|    0.012017|
|         887|   -7.373583|   -9.230707|    0.823998|    0.012017|
|         888|   -7.383779|   -9.233015|    0.823999|    0.012017|
|         889|   -7.392279|   -9.235011|    0.823999|    0.012017|
|         890|   -7.399068|   -9.236655|    0.823999|    0.012017|
|         891|   -7.404191|   -9.237929|    0.823999|    0.012017|
|         892|   -7.407751|   -9.238831|    0.823999|    0.012017|
|         893|   -7.409898|   -9.239385|    0.823998|    0.012017|
|         894|   -7.410813|   -9.239631|    0.823998|    0.012017|
|         895|   -7.410696|   -9.239628|    0.823998|    0.012017|
|         896|   -7.409751|   -9.239447|    0.823998|    0.012017|
|         897|   -7.408177|   -9.239170|    0.823998|    0.012017|
|         898|   -7.406159|   -9.238881|    0.823998|    0.012017|
|         899|   -7.403863|   -9.238666|    0.823998|    0.012017|
|         900|   -7.401439|   -9.238607|    0.823998|    0.012017|
|         901|   -7.399011|   -9.238777|    0.823998|    0.012017|
+-----------------------------------------------------------------------+
|Fixed CL Mode                           |Value                         |
+-----------------------------------------------------------------------+
|Current CL                              |0.823998                      |
|Target CL                               |0.824                         |
|Previous AOA                            |2.78882                       |
[...]
|        5298|   -6.036505|   -7.978466|    0.824237|    0.012021|
|        5299|   -6.043196|   -7.982285|    0.824237|    0.012021|
|        5300|   -6.049498|   -7.986173|    0.824237|    0.012020|
|        5301|   -6.055372|   -7.990147|    0.824237|    0.012020|
|        5302|   -6.060789|   -7.994220|    0.824237|    0.012020|
|        5303|   -6.065734|   -7.998403|    0.824237|    0.012020|
|        5304|   -6.070200|   -8.002701|    0.824237|    0.012020|
|        5305|   -6.074197|   -8.007119|    0.824237|    0.012020|
|        5306|   -6.077742|   -8.011658|    0.824238|    0.012020|
|        5307|   -6.080866|   -8.016318|    0.824238|    0.012020|
|        5308|   -6.083606|   -8.021099|    0.824238|    0.012020|
|        5309|   -6.086009|   -8.025998|    0.824238|    0.012020|
|        5310|   -6.088126|   -8.031015|    0.824238|    0.012020|
|        5311|   -6.090013|   -8.036150|    0.824238|    0.012020|
|        5312|   -6.091727|   -8.041404|    0.824238|    0.012020|
|        5313|   -6.093324|   -8.046778|    0.824238|    0.012020|
|        5314|   -6.094860|   -8.052275|    0.824238|    0.012020|
|        5315|   -6.096388|   -8.057898|    0.824239|    0.012020|
|        5316|   -6.097957|   -8.063653|    0.824239|    0.012020|
|        5317|   -6.099611|   -8.069542|    0.824239|    0.012020|
|        5318|   -6.101388|   -8.075572|    0.824239|    0.012020|
|        5319|   -6.103320|   -8.081747|    0.824239|    0.012020|
|        5320|   -6.105435|   -8.088070|    0.824239|    0.012020|
|        5321|   -6.107750|   -8.094546|    0.824239|    0.012021|
|        5322|   -6.110280|   -8.101177|    0.824239|    0.012021|
|        5323|   -6.113029|   -8.107963|    0.824240|    0.012021|
|        5324|   -6.115999|   -8.114903|    0.824240|    0.012021|
|        5325|   -6.119181|   -8.121995|    0.824240|    0.012021|
|        5326|   -6.122563|   -8.129234|    0.824240|    0.012021|
|        5327|   -6.126125|   -8.136613|    0.824240|    0.012021|
|        5328|   -6.129843|   -8.144124|    0.824240|    0.012021|
|        5329|   -6.133687|   -8.151756|    0.824241|    0.012021|
|        5330|   -6.137623|   -8.159495|    0.824241|    0.012021|
|        5331|   -6.141615|   -8.167328|    0.824241|    0.012021|
|        5332|   -6.145622|   -8.175238|    0.824241|    0.012021|
|        5333|   -6.149604|   -8.183210|    0.824241|    0.012022|
|        5334|   -6.153519|   -8.191226|    0.824241|    0.012022|
|        5335|   -6.157329|   -8.199269|    0.824241|    0.012022|
|        5336|   -6.160994|   -8.207322|    0.824242|    0.012022|
|        5337|   -6.164483|   -8.215369|    0.824242|    0.012022|
|        5338|   -6.167767|   -8.223395|    0.824242|    0.012022|
|        5339|   -6.170824|   -8.231385|    0.824242|    0.012022|
|        5340|   -6.173640|   -8.239330|    0.824242|    0.012022|
|        5341|   -6.176207|   -8.247218|    0.824242|    0.012022|
|        5342|   -6.178527|   -8.255044|    0.824242|    0.012022|
|        5343|   -6.180609|   -8.262803|    0.824243|    0.012022|
|        5344|   -6.182471|   -8.270493|    0.824243|    0.012022|
|        5345|   -6.184135|   -8.278115|    0.824243|    0.012023|
|        5346|   -6.185632|   -8.285670|    0.824243|    0.012023|
|        5347|   -6.186998|   -8.293163|    0.824243|    0.012023|
|        5348|   -6.188269|   -8.300601|    0.824243|    0.012023|
|        5349|   -6.189489|   -8.307991|    0.824243|    0.012023|
|        5350|   -6.190699|   -8.315341|    0.824243|    0.012023|
|        5351|   -6.191942|   -8.322660|    0.824243|    0.012023|
|        5352|   -6.193260|   -8.329957|    0.824243|    0.012023|
|        5353|   -6.194693|   -8.337241|    0.824243|    0.012023|
|        5354|   -6.196279|   -8.344520|    0.824243|    0.012023|
|        5355|   -6.198051|   -8.351801|    0.824243|    0.012023|
|        5356|   -6.200041|   -8.359089|    0.824244|    0.012023|
|        5357|   -6.202275|   -8.366388|    0.824244|    0.012023|
|        5358|   -6.204775|   -8.373702|    0.824244|    0.012023|
|        5359|   -6.207558|   -8.381030|    0.824244|    0.012023|
|        5360|   -6.210638|   -8.388371|    0.824244|    0.012023|
|        5361|   -6.214023|   -8.395719|    0.824244|    0.012023|
|        5362|   -6.217714|   -8.403070|    0.824244|    0.012023|
|        5363|   -6.221712|   -8.410415|    0.824244|    0.012023|
|        5364|   -6.226008|   -8.417741|    0.824244|    0.012023|
|        5365|   -6.230592|   -8.425036|    0.824244|    0.012023|
|        5366|   -6.235446|   -8.432285|    0.824244|    0.012023|
|        5367|   -6.240549|   -8.439471|    0.824244|    0.012023|
|        5368|   -6.245876|   -8.446574|    0.824244|    0.012023|
|        5369|   -6.251395|   -8.453574|    0.824244|    0.012023|
|        5370|   -6.257072|   -8.460449|    0.824244|    0.012023|
|        5371|   -6.262868|   -8.467177|    0.824244|    0.012023|
|        5372|   -6.268741|   -8.473734|    0.824244|    0.012023|
|        5373|   -6.274646|   -8.480097|    0.824244|    0.012023|
|        5374|   -6.280536|   -8.486242|    0.824244|    0.012023|
|        5375|   -6.286362|   -8.492145|    0.824244|    0.012022|
|        5376|   -6.292077|   -8.497784|    0.824244|    0.012022|
|        5377|   -6.297632|   -8.503139|    0.824244|    0.012022|
|        5378|   -6.302982|   -8.508188|    0.824244|    0.012022|
|        5379|   -6.308084|   -8.512913|    0.824244|    0.012022|
|        5380|   -6.312900|   -8.517297|    0.824244|    0.012022|
|        5381|   -6.317397|   -8.521325|    0.824244|    0.012022|
|        5382|   -6.321548|   -8.524981|    0.824244|    0.012022|
|        5383|   -6.325332|   -8.528254|    0.824244|    0.012022|
|        5384|   -6.328738|   -8.531133|    0.824244|    0.012022|
|        5385|   -6.331759|   -8.533607|    0.824244|    0.012022|
|        5386|   -6.334397|   -8.535667|    0.824244|    0.012022|
|        5387|   -6.336659|   -8.537306|    0.824244|    0.012021|
|        5388|   -6.338561|   -8.538518|    0.824244|    0.012021|
|        5389|   -6.340120|   -8.539295|    0.824244|    0.012021|
|        5390|   -6.341359|   -8.539634|    0.824244|    0.012021|
|        5391|   -6.342304|   -8.539530|    0.824244|    0.012021|
|        5392|   -6.342982|   -8.538983|    0.824244|    0.012021|
|        5393|   -6.343421|   -8.537991|    0.824245|    0.012021|
|        5394|   -6.343648|   -8.536557|    0.824245|    0.012021|
|        5395|   -6.343691|   -8.534685|    0.824245|    0.012021|
|        5396|   -6.343574|   -8.532384|    0.824245|    0.012021|
|        5397|   -6.343321|   -8.529665|    0.824245|    0.012021|
|        5398|   -6.342952|   -8.526543|    0.824245|    0.012020|
|        5399|   -6.342486|   -8.523037|    0.824246|    0.012020|
|        5400|   -6.341937|   -8.519169|    0.824246|    0.012020|
|        5401|   -6.341321|   -8.514966|    0.824246|    0.012020|
|        5402|   -6.340646|   -8.510459|    0.824246|    0.012020|
|        5403|   -6.339923|   -8.505681|    0.824246|    0.012020|
|        5404|   -6.339158|   -8.500667|    0.824247|    0.012020|
|        5405|   -6.338357|   -8.495457|    0.824247|    0.012020|
|        5406|   -6.337524|   -8.490089|    0.824247|    0.012020|
|        5407|   -6.336663|   -8.484603|    0.824247|    0.012020|
|        5408|   -6.335776|   -8.479039|    0.824247|    0.012020|
|        5409|   -6.334866|   -8.473436|    0.824248|    0.012019|
|        5410|   -6.333936|   -8.467831|    0.824248|    0.012019|
|        5411|   -6.332987|   -8.462260|    0.824248|    0.012019|
|        5412|   -6.332022|   -8.456755|    0.824248|    0.012019|
|        5413|   -6.331044|   -8.451346|    0.824248|    0.012019|
|        5414|   -6.330057|   -8.446060|    0.824249|    0.012019|
|        5415|   -6.329063|   -8.440921|    0.824249|    0.012019|
|        5416|   -6.328068|   -8.435949|    0.824249|    0.012019|
|        5417|   -6.327076|   -8.431160|    0.824249|    0.012019|
|        5418|   -6.326093|   -8.426568|    0.824249|    0.012019|
|        5419|   -6.325126|   -8.422183|    0.824250|    0.012019|
|        5420|   -6.324181|   -8.418012|    0.824250|    0.012019|
|        5421|   -6.323267|   -8.414059|    0.824250|    0.012019|
|        5422|   -6.322392|   -8.410327|    0.824250|    0.012019|
|        5423|   -6.321565|   -8.406815|    0.824250|    0.012019|
|        5424|   -6.320796|   -8.403519|    0.824251|    0.012019|
|        5425|   -6.320097|   -8.400438|    0.824251|    0.012019|
|        5426|   -6.319478|   -8.397564|    0.824251|    0.012019|
|        5427|   -6.318952|   -8.394891|    0.824251|    0.012019|
|        5428|   -6.318532|   -8.392413|    0.824251|    0.012019|
|        5429|   -6.318230|   -8.390120|    0.824251|    0.012019|
|        5430|   -6.318061|   -8.388005|    0.824251|    0.012019|
|        5431|   -6.318039|   -8.386059|    0.824252|    0.012019|
|        5432|   -6.318177|   -8.384273|    0.824252|    0.012019|
|        5433|   -6.318490|   -8.382640|    0.824252|    0.012019|
|        5434|   -6.318990|   -8.381151|    0.824252|    0.012019|
|        5435|   -6.319693|   -8.379799|    0.824252|    0.012019|
|        5436|   -6.320610|   -8.378577|    0.824252|    0.012019|
|        5437|   -6.321754|   -8.377478|    0.824252|    0.012019|
|        5438|   -6.323135|   -8.376497|    0.824252|    0.012019|
|        5439|   -6.324764|   -8.375627|    0.824252|    0.012019|
|        5440|   -6.326647|   -8.374864|    0.824252|    0.012019|
|        5441|   -6.328793|   -8.374203|    0.824252|    0.012019|
|        5442|   -6.331205|   -8.373640|    0.824253|    0.012019|
|        5443|   -6.333885|   -8.373172|    0.824253|    0.012019|
|        5444|   -6.336833|   -8.372794|    0.824253|    0.012019|
|        5445|   -6.340047|   -8.372504|    0.824253|    0.012019|
|        5446|   -6.343520|   -8.372297|    0.824253|    0.012019|
|        5447|   -6.347245|   -8.372172|    0.824253|    0.012019|
|        5448|   -6.351208|   -8.372125|    0.824253|    0.012020|
|        5449|   -6.355395|   -8.372152|    0.824253|    0.012020|
|        5450|   -6.359788|   -8.372251|    0.824253|    0.012020|
|        5451|   -6.364363|   -8.372418|    0.824253|    0.012020|
|        5452|   -6.369095|   -8.372651|    0.824253|    0.012020|
|        5453|   -6.373954|   -8.372945|    0.824253|    0.012020|
|        5454|   -6.378908|   -8.373298|    0.824253|    0.012020|
|        5455|   -6.383921|   -8.373706|    0.824253|    0.012020|
|        5456|   -6.388954|   -8.374166|    0.824253|    0.012020|
|        5457|   -6.393966|   -8.374674|    0.824253|    0.012020|
|        5458|   -6.398915|   -8.375226|    0.824253|    0.012020|
|        5459|   -6.403755|   -8.375820|    0.824253|    0.012020|
|        5460|   -6.408442|   -8.376451|    0.824253|    0.012020|
|        5461|   -6.412933|   -8.377116|    0.824253|    0.012021|
|        5462|   -6.417186|   -8.377812|    0.824253|    0.012021|
|        5463|   -6.421160|   -8.378536|    0.824253|    0.012021|
|        5464|   -6.424819|   -8.379284|    0.824253|    0.012021|
|        5465|   -6.428133|   -8.380053|    0.824252|    0.012021|
|        5466|   -6.431075|   -8.380840|    0.824252|    0.012021|
|        5467|   -6.433627|   -8.381642|    0.824252|    0.012021|
|        5468|   -6.435775|   -8.382456|    0.824252|    0.012021|
|        5469|   -6.437515|   -8.383278|    0.824252|    0.012021|
|        5470|   -6.438849|   -8.384106|    0.824252|    0.012021|
|        5471|   -6.439787|   -8.384936|    0.824252|    0.012021|
|        5472|   -6.440344|   -8.385765|    0.824252|    0.012021|
|        5473|   -6.440542|   -8.386591|    0.824252|    0.012021|
|        5474|   -6.440411|   -8.387409|    0.824252|    0.012021|
|        5475|   -6.439980|   -8.388217|    0.824252|    0.012021|
|        5476|   -6.439287|   -8.389012|    0.824252|    0.012021|
|        5477|   -6.438369|   -8.389789|    0.824251|    0.012022|
|        5478|   -6.437266|   -8.390546|    0.824251|    0.012022|
|        5479|   -6.436016|   -8.391280|    0.824251|    0.012022|
|        5480|   -6.434661|   -8.391986|    0.824251|    0.012022|
|        5481|   -6.433239|   -8.392663|    0.824251|    0.012022|
|        5482|   -6.431786|   -8.393307|    0.824251|    0.012022|
|        5483|   -6.430339|   -8.393915|    0.824251|    0.012022|
|        5484|   -6.428931|   -8.394484|    0.824251|    0.012022|
|        5485|   -6.427591|   -8.395013|    0.824251|    0.012022|
|        5486|   -6.426348|   -8.395498|    0.824251|    0.012022|
|        5487|   -6.425226|   -8.395939|    0.824251|    0.012022|
|        5488|   -6.424249|   -8.396333|    0.824250|    0.012022|
|        5489|   -6.423435|   -8.396679|    0.824250|    0.012022|
|        5490|   -6.422800|   -8.396976|    0.824250|    0.012022|
|        5491|   -6.422361|   -8.397223|    0.824250|    0.012022|
|        5492|   -6.422127|   -8.397421|    0.824250|    0.012022|
|        5493|   -6.422109|   -8.397570|    0.824250|    0.012022|
|        5494|   -6.422315|   -8.397669|    0.824250|    0.012022|
|        5495|   -6.422749|   -8.397720|    0.824250|    0.012022|
|        5496|   -6.423415|   -8.397723|    0.824250|    0.012022|
|        5497|   -6.424316|   -8.397680|    0.824250|    0.012021|
|        5498|   -6.425451|   -8.397591|    0.824250|    0.012021|
|        5499|   -6.426820|   -8.397459|    0.824250|    0.012007|
+-----------------------------------------------------------------------+
|Fixed CL Mode (Finite Difference)       |Value                         |
+-----------------------------------------------------------------------+
|Delta CL / Delta AoA                    |0.2499                        |
|Delta CD / Delta CL                     |0.01822                       |
|Delta CMz / Delta CL                    |0.0061913                     |
+-----------------------------------------------------------------------+
Writing Flow Meta-Data file: flow.meta

----------------------------- Solver Exit -------------------------------

Maximum number of iterations reached (ITER = 5500) before convergence.
+-----------------------------------------------------------------------+
|      Convergence Field     |     Value    |   Criterion  |  Converged |
+-----------------------------------------------------------------------+
|                    rms[Rho]|      -6.42682|         < -12|          No|
+-----------------------------------------------------------------------+
-------------------------------------------------------------------------

--------------------------- Finalizing Solver ---------------------------
Deleted CNumerics container.
Deleted CIntegration container.
Deleted CSolver container.
Deleted CIteration container.
Deleted CInterface container.
Deleted CGeometry container.
Deleted CFreeFormDefBox class.
Deleted CSurfaceMovement class.
Deleted CVolumetricMovement class.
Deleted CConfig container.
Deleted nInst container.
Deleted COutput class.
-------------------------------------------------------------------------

------------------------- Exit Success (SU2_CFD) ------------------------


-------------------------------------------------------------------------
|    ___ _   _ ___                                                      |
|   / __| | | |_  )   Release 8.0.0 "Harrier"                           |
|   \__ \ |_| |/ /                                                      |
|   |___/\___//___|   Suite (Solution Exporting Code)                   |
|                                                                       |
-------------------------------------------------------------------------
| SU2 Project Website: https://su2code.github.io                        |
|                                                                       |
| The SU2 Project is maintained by the SU2 Foundation                   |
| (http://su2foundation.org)                                            |
-------------------------------------------------------------------------
| Copyright 2012-2023, SU2 Contributors                                 |
|                                                                       |
| SU2 is free software; you can redistribute it and/or                  |
| modify it under the terms of the GNU Lesser General Public            |
| License as published by the Free Software Foundation; either          |
| version 2.1 of the License, or (at your option) any later version.    |
|                                                                       |
| SU2 is distributed in the hope that it will be useful,                |
| but WITHOUT ANY WARRANTY; without even the implied warranty of        |
| MERCHANTABILITY or FITNESS FOR A PARTICULAR PURPOSE. See the GNU      |
| Lesser General Public License for more details.                       |
|                                                                       |
| You should have received a copy of the GNU Lesser General Public      |
| License along with SU2. If not, see <http://www.gnu.org/licenses/>.   |
-------------------------------------------------------------------------

----------------- Physical Case Definition ( Zone 0 ) -------------------
Input mesh file name: mesh_RAE2822_turb_deform.su2

-------------------- Output Information ( Zone 0 ) ----------------------
The tabular file format is CSV (.csv).
Flow variables file name: flow.

------------- Config File Boundary Information ( Zone 0 ) ---------------
+-----------------------------------------------------------------------+
|                        Marker Type|                        Marker Name|
+-----------------------------------------------------------------------+
|                          Far-field|                           FARFIELD|
+-----------------------------------------------------------------------+
|                     Heat flux wall|                            AIRFOIL|
+-----------------------------------------------------------------------+
Two dimensional problem.
13937 grid points before partitioning.
22842 volume elements before partitioning.
2 surface markers.
192 boundary elements in index 0 (Marker = AIRFOIL).
40 boundary elements in index 1 (Marker = FARFIELD).
Executing the partitioning functions.
Building the graph adjacency structure.
Calling ParMETIS... graph partitioning complete (831 edge cuts).
Distributing ParMETIS coloring.
Rebalancing vertices.
Rebalancing volume element connectivity.
Rebalancing markers and surface elements.
14875 vertices including ghost points. 
23674 interior elements including halo cells. 
18780 triangles.
4894 quadrilaterals.
Establishing MPI communication patterns.
Identify vertices.
Storing a mapping from global to local point index.

------------------------- Solution Postprocessing -----------------------
Reading and storing the solution from restart_flow.
Volume output fields: COORDINATES, SOLUTION
  Info: Ignoring the following screen output fields:
  RMS_DENSITY, RMS_NU_TILDE, LIFT, DRAG
Screen output fields: INNER_ITER
  Info: Ignoring the following history output groups:
  RMS_RES, AERO_COEFF
History output group(s): ITER
Warning: No (valid) fields chosen for convergence monitoring. Convergence monitoring inactive.
Warning: No (valid) fields chosen for time convergence monitoring. Time convergence monitoring inactive.
|Paraview                           |flow.vtu                           |
|Paraview surface                   |surface_flow.vtu                   |
|CSV file                           |surface_flow.csv                   |

------------------------- Finalize Solver -------------------------
Deleted CGeometry container.
Deleted CSolver class.
Deleted CConfig container.
Deleted COutput class.

Completed in 0.017312 seconds on 6 cores.

------------------------- Exit Success (SU2_SOL) ------------------------

