
-------------------------------------------------------------------------
|    ___ _   _ ___                                                      |
|   / __| | | |_  )   Release 8.0.0 "Harrier"                           |
|   \__ \ |_| |/ /                                                      |
|   |___/\___//___|   Suite (Computational Fluid Dynamics Code)         |
|                                                                       |
-------------------------------------------------------------------------
| SU2 Project Website: https://su2code.github.io                        |
|                                                                       |
| The SU2 Project is maintained by the SU2 Foundation                   |
| (http://su2foundation.org)                                            |
-------------------------------------------------------------------------
| Copyright 2012-2023, SU2 Contributors                                 |
|                                                                       |
| SU2 is free software; you can redistribute it and/or                  |
| modify it under the terms of the GNU Lesser General Public            |
| License as published by the Free Software Foundation; either          |
| version 2.1 of the License, or (at your option) any later version.    |
|                                                                       |
| SU2 is distributed in the hope that it will be useful,                |
| but WITHOUT ANY WARRANTY; without even the implied warranty of        |
| MERCHANTABILITY or FITNESS FOR A PARTICULAR PURPOSE. See the GNU      |
| Lesser General Public License for more details.                       |
|                                                                       |
| You should have received a copy of the GNU Lesser General Public      |
| License along with SU2. If not, see <http://www.gnu.org/licenses/>.   |
-------------------------------------------------------------------------

Parsing config file for zone 0

----------------- Physical Case Definition ( Zone 0 ) -------------------
Compressible RANS equations.
Turbulence model: Spalart-Allmaras-noft2
Hybrid RANS/LES: No Hybrid RANS/LES
Mach number: 0.734.
Angle of attack (AoA): 2.31 deg, and angle of sideslip (AoS): 0 deg.
Reynolds number: 6.5e+06. Reference length 1.
Fixed CL mode, target value: 0.824.
Reading and writing binary SU2 native restart files.
Read flow solution from: solution_flow.dat.
Dimensional simulation.
The reference area is 1 m^2.
The semi-span will be computed using the max y(3D) value.
The reference length is 1 m.
Reference origin for moment evaluation is (0.25, 0, 0).
Surface(s) where the force coefficients are evaluated: AIRFOIL.

Surface(s) plotted in the output file: AIRFOIL.
Surface(s) affected by the design variables: AIRFOIL.
Input mesh file name: mesh_RAE2822_turb_deform.su2

--------------- Space Numerical Integration ( Zone 0 ) ------------------
Jameson-Schmidt-Turkel scheme (2nd order in space) for the flow inviscid terms.
JST viscous coefficients (2nd & 4th): 0.5, 0.02.
The method includes a grid stretching correction (p = 0.3).
Scalar upwind solver for the turbulence model.
First order integration in space.
Average of gradients with correction (viscous flow terms).
Average of gradients with correction (viscous turbulence terms).
Gradient for viscous and source terms: inverse-distance weighted Least-Squares.

--------------- Time Numerical Integration  ( Zone 0 ) ------------------
Local time stepping (steady state simulation).
Euler implicit method for the flow equations.
FGMRES is used for solving the linear system.
Using a ILU(0) preconditioning.
Convergence criteria of the linear solver: 1e-06.
Max number of linear iterations: 10.
No CFL adaptation.
Courant-Friedrichs-Lewy number:       10
Euler implicit time integration for the turbulence model.

------------------ Convergence Criteria  ( Zone 0 ) ---------------------
Maximum number of solver subiterations: 5500.
Begin convergence monitoring at iteration 10.
Residual minimum value: 1e-12.
Cauchy series min. value: 1e-06.
Number of Cauchy elements: 100.
Begin windowed time average at iteration 0.

-------------------- Output Information ( Zone 0 ) ----------------------
File writing frequency: 
+------------------------------------+
|                     File| Frequency|
+------------------------------------+
|                  RESTART|     10000|
|                 PARAVIEW|     10000|
|         SURFACE_PARAVIEW|     10000|
|              SURFACE_CSV|     10000|
+------------------------------------+
Writing the convergence history file every 1 inner iterations.
Writing the screen convergence history every 1 inner iterations.
The tabular file format is CSV (.csv).
Convergence history file name: history_direct.
Forces breakdown file name: forces_breakdown.dat.
Surface file name: surface_flow.
Volume file name: flow.
Restart file name: restart_flow.dat.

------------- Config File Boundary Information ( Zone 0 ) ---------------
+-----------------------------------------------------------------------+
|                        Marker Type|                        Marker Name|
+-----------------------------------------------------------------------+
|                          Far-field|                           FARFIELD|
+-----------------------------------------------------------------------+
|                     Heat flux wall|                            AIRFOIL|
+-----------------------------------------------------------------------+

-------------------- Output Preprocessing ( Zone 0 ) --------------------

WARNING: SURFACE_PRESSURE_DROP can only be computed for at least 2 surfaces (outlet, inlet, ...)

Screen output fields: INNER_ITER, RMS_DENSITY, RMS_NU_TILDE, LIFT, DRAG
History output group(s): ITER, RMS_RES, AERO_COEFF
Convergence field(s): RMS_DENSITY
Warning: No (valid) fields chosen for time convergence monitoring. Time convergence monitoring inactive.
Volume output fields: COORDINATES, SOLUTION, PRIMITIVE

------------------- Geometry Preprocessing ( Zone 0 ) -------------------
Two dimensional problem.
13937 grid points before partitioning.
22842 volume elements before partitioning.
2 surface markers.
192 boundary elements in index 0 (Marker = AIRFOIL).
40 boundary elements in index 1 (Marker = FARFIELD).
Executing the partitioning functions.
Building the graph adjacency structure.
Calling ParMETIS... graph partitioning complete (831 edge cuts).
Distributing ParMETIS coloring.
Rebalancing vertices.
Rebalancing volume element connectivity.
Rebalancing markers and surface elements.
14875 vertices including ghost points. 
23674 interior elements including halo cells. 
18780 triangles.
4894 quadrilaterals.
Establishing MPI communication patterns.
Setting point connectivity.
Renumbering points (Reverse Cuthill McKee Ordering).
Recomputing point connectivity.
Setting element connectivity.
Checking the numerical grid orientation.
All volume elements are correctly orientend.
All surface elements are correctly orientend.
Identifying edges and vertices.
Setting the control volume structure.
Area of the computational grid: 32209.9.
Searching for the closest normal neighbors to the surfaces.
Storing a mapping from global to local point index.
Compute the surface curvature.
Max K: 207.075. Mean K: 8.35737. Standard deviation K: 27.1907.
Checking for periodicity.
Computing mesh quality statistics for the dual control volumes.
+--------------------------------------------------------------+
|           Mesh Quality Metric|        Minimum|        Maximum|
+--------------------------------------------------------------+
|    Orthogonality Angle (deg.)|        74.4631|        89.9999|
|     CV Face Area Aspect Ratio|        1.00104|        3359.03|
|           CV Sub-Volume Ratio|        1.00066|        1219.74|
+--------------------------------------------------------------+
Finding max control volume width.
Communicating number of neighbors.
Wetted area = 2.02134 m.
Area projection in the x-plane = 0.127982 m, y-plane = 0.995873 m.
Max. coordinate in the x-direction = 1 m, y-direction = 0.0615378 m.
Min. coordinate in the x-direction = 0 m, y-direction = -0.0626031 m.
Computing wall distances.

-------------------- Solver Preprocessing ( Zone 0 ) --------------------
WARNING: AoA in the solution file (2.76604 deg.) +
         AoA offset in mesh file (0 deg.) = 2.76604 deg.
WARNING: SU2 will use the dCD/dCL provided in the direct solution file: 0.0198654.
WARNING: SU2 will use the dCMz/dCL provided in the direct solution file: 0.0104965.
Viscous flow: Computing pressure using the ideal gas law
based on the free-stream temperature and a density computed
from the Reynolds number.
Force coefficients computed using free-stream values.

-- Models:
+------------------------------------------------------------------------------+
|          Viscosity Model|        Conductivity Model|              Fluid Model|
+------------------------------------------------------------------------------+
|               SUTHERLAND|          CONSTANT_PRANDTL|             STANDARD_AIR|
+------------------------------------------------------------------------------+
-- Fluid properties:
+------------------------------------------------------------------------------+
|                  Name|    Dim. value|    Ref. value|      Unit|Non-dim. value|
+------------------------------------------------------------------------------+
|        Ref. Viscosity|     1.716e-05|             1|   N.s/m^2|     1.716e-05|
|      Sutherland Temp.|        273.15|             1|         K|        273.15|
|     Sutherland Const.|         110.4|             1|         K|         110.4|
+------------------------------------------------------------------------------+
|        Prandtl (Lam.)|             -|             -|         -|          0.71|
|       Prandtl (Turb.)|             -|             -|         -|           0.9|
+------------------------------------------------------------------------------+
|          Gas Constant|       287.058|             1|  N.m/kg.K|       287.058|
|      Spec. Heat Ratio|             -|             -|         -|           1.4|
+------------------------------------------------------------------------------+
-- Initial and free-stream conditions:
+------------------------------------------------------------------------------+
|                  Name|    Dim. value|    Ref. value|      Unit|Non-dim. value|
+------------------------------------------------------------------------------+
|       Static Pressure|         38515|             1|        Pa|         38515|
|               Density|      0.465631|             1|    kg/m^3|      0.465631|
|           Temperature|        288.15|             1|         K|        288.15|
|          Total Energy|        237984|             1|   m^2/s^2|        237984|
|            Velocity-X|       249.487|             1|       m/s|       249.487|
|            Velocity-Y|       12.0537|             1|       m/s|       12.0537|
|    Velocity Magnitude|       249.778|             1|       m/s|       249.778|
+------------------------------------------------------------------------------+
|             Viscosity|    1.7893e-05|             1|   N.s/m^2|    1.7893e-05|
|          Conductivity|             -|             1|   W/m^2.K|             -|
|     Turb. Kin. Energy|       233.959|             1|   m^2/s^2|       233.959|
|     Spec. Dissipation|        608834|             1|       1/s|        608834|
+------------------------------------------------------------------------------+
|           Mach Number|             -|             -|         -|         0.734|
|       Reynolds Number|             -|             -|         -|       6.5e+06|
+------------------------------------------------------------------------------+
Initialize Jacobian structure (Navier-Stokes). MG level: 0.
Initialize Jacobian structure (SA model).

------------------- Numerics Preprocessing ( Zone 0 ) -------------------

----------------- Integration Preprocessing ( Zone 0 ) ------------------

------------------- Iteration Preprocessing ( Zone 0 ) ------------------
Euler/Navier-Stokes/RANS fluid iteration.

------------------------------ Begin Solver -----------------------------

Simulation Run using the Single-zone Driver
WARNING: SU2 was not compiled for an AVX-capable architecture. Performance could be better,
         see https://su2code.github.io/docs_v7/Build-SU2-Linux-MacOS/#compiler-optimizations
+----------------------------------------------------------------+
|  Inner_Iter|    rms[Rho]|     rms[nu]|          CL|          CD|
+----------------------------------------------------------------+
|           0|   -5.355985|   -6.758557|    0.824034|    0.011965|
|           1|   -5.409729|   -6.856591|    0.824051|    0.011968|
|           2|   -5.466617|   -6.981623|    0.824055|    0.011970|
|           3|   -5.512749|   -7.128323|    0.824052|    0.011972|
|           4|   -5.547914|   -7.273688|    0.824047|    0.011972|
|           5|   -5.571191|   -7.371793|    0.824041|    0.011972|
|           6|   -5.582926|   -7.400092|    0.824038|    0.011972|
|           7|   -5.585725|   -7.387590|    0.824037|    0.011972|
|           8|   -5.582496|   -7.360660|    0.824038|    0.011973|
|           9|   -5.575214|   -7.328150|    0.824041|    0.011974|
|          10|   -5.565140|   -7.295111|    0.824044|    0.011976|
|          11|   -5.553363|   -7.267431|    0.824049|    0.011978|
|          12|   -5.540980|   -7.250224|    0.824054|    0.011981|
|          13|   -5.528942|   -7.246434|    0.824059|    0.011984|
|          14|   -5.517900|   -7.256565|    0.824063|    0.011987|
|          15|   -5.508199|   -7.278434|    0.824067|    0.011991|
|          16|   -5.499983|   -7.306336|    0.824069|    0.011994|
|          17|   -5.493301|   -7.330505|    0.824071|    0.011998|
|          18|   -5.488151|   -7.339965|    0.824071|    0.012001|
|          19|   -5.484463|   -7.330040|    0.824069|    0.012005|
|          20|   -5.482071|   -7.306345|    0.824067|    0.012008|
|          21|   -5.480720|   -7.279106|    0.824063|    0.012010|
|          22|   -5.480111|   -7.256299|    0.824059|    0.012013|
|          23|   -5.479970|   -7.241882|    0.824054|    0.012015|
|          24|   -5.480113|   -7.236811|    0.824048|    0.012016|
|          25|   -5.480457|   -7.240154|    0.824043|    0.012018|
|          26|   -5.481004|   -7.249748|    0.824037|    0.012019|
|          27|   -5.481789|   -7.262593|    0.824032|    0.012019|
|          28|   -5.482827|   -7.275340|    0.824027|    0.012020|
|          29|   -5.484080|   -7.285072|    0.824022|    0.012020|
|          30|   -5.485439|   -7.290191|    0.824018|    0.012020|
|          31|   -5.486739|   -7.290870|    0.824014|    0.012020|
|          32|   -5.487771|   -7.288703|    0.824011|    0.012020|
|          33|   -5.488320|   -7.285864|    0.824007|    0.012020|
|          34|   -5.488193|   -7.284332|    0.824004|    0.012019|
|          35|   -5.487250|   -7.285515|    0.824001|    0.012019|
|          36|   -5.485426|   -7.290182|    0.823998|    0.012018|
|          37|   -5.482734|   -7.298549|    0.823995|    0.012018|
|          38|   -5.479261|   -7.310395|    0.823991|    0.012017|
|          39|   -5.475142|   -7.325144|    0.823988|    0.012016|
|          40|   -5.470545|   -7.341932|    0.823984|    0.012016|
|          41|   -5.465642|   -7.359652|    0.823980|    0.012015|
|          42|   -5.460594|   -7.377029|    0.823976|    0.012014|
|          43|   -5.455532|   -7.392741|    0.823971|    0.012014|
|          44|   -5.450553|   -7.405597|    0.823967|    0.012013|
|          45|   -5.445708|   -7.414753|    0.823962|    0.012012|
|          46|   -5.441002|   -7.419871|    0.823957|    0.012011|
|          47|   -5.436402|   -7.421173|    0.823953|    0.012011|
|          48|   -5.431838|   -7.419338|    0.823948|    0.012010|
|          49|   -5.427220|   -7.415312|    0.823944|    0.012009|
|          50|   -5.422456|   -7.410099|    0.823939|    0.012008|
|          51|   -5.417468|   -7.404604|    0.823936|    0.012008|
|          52|   -5.412207|   -7.399554|    0.823932|    0.012007|
|          53|   -5.406663|   -7.395468|    0.823929|    0.012006|
|          54|   -5.400866|   -7.392677|    0.823927|    0.012005|
|          55|   -5.394881|   -7.391355|    0.823925|    0.012004|
|          56|   -5.388799|   -7.391556|    0.823924|    0.012003|
|          57|   -5.382723|   -7.393248|    0.823923|    0.012002|
|          58|   -5.376750|   -7.396340|    0.823923|    0.012001|
|          59|   -5.370966|   -7.400703|    0.823923|    0.012000|
|          60|   -5.365435|   -7.406177|    0.823924|    0.011999|
|          61|   -5.360197|   -7.412572|    0.823925|    0.011998|
|          62|   -5.355267|   -7.419669|    0.823926|    0.011997|
|          63|   -5.350642|   -7.427219|    0.823928|    0.011996|
|          64|   -5.346302|   -7.434943|    0.823930|    0.011995|
|          65|   -5.342224|   -7.442550|    0.823932|    0.011994|
|          66|   -5.338381|   -7.449759|    0.823934|    0.011993|
|          67|   -5.334751|   -7.456330|    0.823936|    0.011992|
|          68|   -5.331322|   -7.462098|    0.823938|    0.011991|
|          69|   -5.328087|   -7.466998|    0.823940|    0.011990|
|          70|   -5.325050|   -7.471064|    0.823942|    0.011990|
|          71|   -5.322223|   -7.474421|    0.823944|    0.011989|
|          72|   -5.319620|   -7.477246|    0.823946|    0.011988|
|          73|   -5.317254|   -7.479734|    0.823948|    0.011987|
|          74|   -5.315137|   -7.482052|    0.823949|    0.011986|
|          75|   -5.313278|   -7.484316|    0.823951|    0.011986|
|          76|   -5.311678|   -7.486576|    0.823952|    0.011985|
|          77|   -5.310331|   -7.488817|    0.823953|    0.011984|
|          78|   -5.309227|   -7.490976|    0.823954|    0.011984|
|          79|   -5.308348|   -7.492964|    0.823955|    0.011983|
|          80|   -5.307674|   -7.494694|    0.823956|    0.011983|
|          81|   -5.307180|   -7.496103|    0.823957|    0.011982|
|          82|   -5.306842|   -7.497174|    0.823958|    0.011982|
|          83|   -5.306634|   -7.497935|    0.823958|    0.011981|
|          84|   -5.306530|   -7.498458|    0.823959|    0.011981|
|          85|   -5.306506|   -7.498850|    0.823959|    0.011980|
|          86|   -5.306543|   -7.499230|    0.823960|    0.011980|
|          87|   -5.306624|   -7.499718|    0.823960|    0.011979|
|          88|   -5.306739|   -7.500418|    0.823961|    0.011979|
|          89|   -5.306883|   -7.501411|    0.823961|    0.011979|
|          90|   -5.307060|   -7.502748|    0.823961|    0.011979|
|          91|   -5.307279|   -7.504457|    0.823962|    0.011978|
|          92|   -5.307560|   -7.506540|    0.823962|    0.011978|
|          93|   -5.307929|   -7.508980|    0.823962|    0.011978|
|          94|   -5.308417|   -7.511751|    0.823963|    0.011978|
|          95|   -5.309062|   -7.514819|    0.823963|    0.011978|
|          96|   -5.309903|   -7.518153|    0.823964|    0.011978|
|          97|   -5.310979|   -7.521723|    0.823965|    0.011977|
|          98|   -5.312326|   -7.525507|    0.823966|    0.011978|
|          99|   -5.313975|   -7.529487|    0.823966|    0.011978|
|         100|   -5.315951|   -7.533652|    0.823967|    0.011978|
|         101|   -5.318264|   -7.537994|    0.823968|    0.011980|
+-----------------------------------------------------------------------+
|Fixed CL Mode                           |Value                         |
+-----------------------------------------------------------------------+
|Current CL                              |0.823968                      |
|Target CL                               |0.824                         |
|Previous AOA                            |2.76604                       |
|Changed AoA by                          |0.000163288                   |
+-----------------------------------------------------------------------+
+----------------------------------------------------------------+
|  Inner_Iter|    rms[Rho]|     rms[nu]|          CL|          CD|
+----------------------------------------------------------------+
|         102|   -3.980252|   -7.525874|    0.823970|    0.011980|
|         103|   -4.366298|   -7.539012|    0.823971|    0.011981|
|         104|   -4.615594|   -7.546161|    0.823972|    0.011981|
|         105|   -4.695551|   -7.552270|    0.823973|    0.011981|
|         106|   -4.745972|   -7.558148|    0.823975|    0.011982|
|         107|   -4.809236|   -7.563986|    0.823976|    0.011982|
|         108|   -4.884430|   -7.569831|    0.823978|    0.011983|
|         109|   -4.957293|   -7.575694|    0.823979|    0.011983|
|         110|   -5.013221|   -7.581575|    0.823981|    0.011984|
|         111|   -5.049110|   -7.587462|    0.823982|    0.011984|
|         112|   -5.070604|   -7.593340|    0.823984|    0.011985|
|         113|   -5.082978|   -7.599208|    0.823985|    0.011985|
|         114|   -5.089568|   -7.605067|    0.823986|    0.011986|
|         115|   -5.093809|   -7.610907|    0.823987|    0.011987|
|         116|   -5.099250|   -7.616689|    0.823988|    0.011987|
|         117|   -5.108166|   -7.622364|    0.823989|    0.011988|
|         118|   -5.120779|   -7.627880|    0.823990|    0.011988|
|         119|   -5.135593|   -7.633193|    0.823991|    0.011989|
|         120|   -5.150467|   -7.638270|    0.823991|    0.011990|
|         121|   -5.163840|   -7.643087|    0.823992|    0.011990|
|         122|   -5.175384|   -7.647629|    0.823992|    0.011991|
|         123|   -5.185741|   -7.651888|    0.823992|    0.011991|
|         124|   -5.195729|   -7.655868|    0.823993|    0.011992|
|         125|   -5.205721|   -7.659588|    0.823993|    0.011992|
|         126|   -5.215509|   -7.663078|    0.823993|    0.011993|
|         127|   -5.224522|   -7.666383|    0.823993|    0.011994|
|         128|   -5.232128|   -7.669554|    0.823993|    0.011994|
|         129|   -5.237864|   -7.672649|    0.823993|    0.011994|
|         130|   -5.241534|   -7.675719|    0.823993|    0.011995|
|         131|   -5.243227|   -7.678813|    0.823993|    0.011995|
|         132|   -5.243290|   -7.681971|    0.823993|    0.011996|
|         133|   -5.242253|   -7.685220|    0.823993|    0.011996|
|         134|   -5.240709|   -7.688575|    0.823993|    0.011997|
|         135|   -5.239190|   -7.692037|    0.823993|    0.011997|
|         136|   -5.238073|   -7.695594|    0.823993|    0.011998|
|         137|   -5.237531|   -7.699220|    0.823994|    0.011998|
|         138|   -5.237548|   -7.702879|    0.823994|    0.011999|
|         139|   -5.237953|   -7.706525|    0.823994|    0.011999|
|         140|   -5.238480|   -7.710107|    0.823995|    0.012000|
|         141|   -5.238837|   -7.713570|    0.823995|    0.012000|
|         142|   -5.238774|   -7.716858|    0.823995|    0.012001|
|         143|   -5.238140|   -7.719921|    0.823996|    0.012001|
|         144|   -5.236914|   -7.722718|    0.823996|    0.012002|
|         145|   -5.235200|   -7.725212|    0.823997|    0.012002|
|         146|   -5.233189|   -7.727383|    0.823997|    0.012003|
|         147|   -5.231101|   -7.729222|    0.823998|    0.012003|
|         148|   -5.229135|   -7.730738|    0.823998|    0.012003|
|         149|   -5.227426|   -7.731955|    0.823999|    0.012004|
|         150|   -5.226036|   -7.732910|    0.823999|    0.012004|
|         151|   -5.224952|   -7.733652|    0.824000|    0.012005|
|         152|   -5.224116|   -7.734239|    0.824001|    0.012005|
|         153|   -5.223442|   -7.734738|    0.824001|    0.012005|
|         154|   -5.222845|   -7.735214|    0.824002|    0.012006|
|         155|   -5.222260|   -7.735734|    0.824002|    0.012006|
|         156|   -5.221651|   -7.736360|    0.824002|    0.012006|
|         157|   -5.221013|   -7.737150|    0.824003|    0.012007|
|         158|   -5.220365|   -7.738150|    0.824003|    0.012007|
|         159|   -5.219742|   -7.739397|    0.824004|    0.012007|
|         160|   -5.219184|   -7.740918|    0.824004|    0.012008|
|         161|   -5.218725|   -7.742729|    0.824005|    0.012008|
|         162|   -5.218394|   -7.744837|    0.824005|    0.012008|
|         163|   -5.218206|   -7.747241|    0.824006|    0.012008|
|         164|   -5.218171|   -7.749934|    0.824006|    0.012008|
|         165|   -5.218286|   -7.752904|    0.824007|    0.012008|
|         166|   -5.218547|   -7.756135|    0.824008|    0.012008|
|         167|   -5.218945|   -7.759612|    0.824008|    0.012008|
|         168|   -5.219472|   -7.763319|    0.824009|    0.012008|
|         169|   -5.220118|   -7.767243|    0.824009|    0.012008|
|         170|   -5.220871|   -7.771374|    0.824010|    0.012008|
|         171|   -5.221719|   -7.775705|    0.824011|    0.012008|
|         172|   -5.222650|   -7.780230|    0.824011|    0.012008|
|         173|   -5.223647|   -7.784947|    0.824012|    0.012008|
|         174|   -5.224694|   -7.789853|    0.824012|    0.012008|
|         175|   -5.225772|   -7.794945|    0.824013|    0.012008|
|         176|   -5.226861|   -7.800215|    0.824014|    0.012008|
|         177|   -5.227945|   -7.805652|    0.824014|    0.012008|
|         178|   -5.229005|   -7.811236|    0.824015|    0.012008|
|         179|   -5.230030|   -7.816943|    0.824015|    0.012007|
|         180|   -5.231011|   -7.822738|    0.824016|    0.012007|
|         181|   -5.231944|   -7.828580|    0.824016|    0.012007|
|         182|   -5.232834|   -7.834413|    0.824017|    0.012007|
|         183|   -5.233692|   -7.840183|    0.824017|    0.012006|
|         184|   -5.234538|   -7.845828|    0.824018|    0.012006|
|         185|   -5.235399|   -7.851289|    0.824018|    0.012006|
|         186|   -5.236308|   -7.856505|    0.824018|    0.012006|
|         187|   -5.237306|   -7.861421|    0.824018|    0.012005|
|         188|   -5.238439|   -7.865989|    0.824018|    0.012005|
|         189|   -5.239755|   -7.870172|    0.824018|    0.012005|
|         190|   -5.241306|   -7.873949|    0.824018|    0.012004|
|         191|   -5.243141|   -7.877313|    0.824018|    0.012004|
|         192|   -5.245309|   -7.880276|    0.824018|    0.012003|
|         193|   -5.247856|   -7.882863|    0.824018|    0.012003|
|         194|   -5.250819|   -7.885118|    0.824018|    0.012003|
|         195|   -5.254230|   -7.887096|    0.824018|    0.012002|
|         196|   -5.258112|   -7.888862|    0.824017|    0.012002|
|         197|   -5.262476|   -7.890487|    0.824017|    0.012001|
|         198|   -5.267324|   -7.892046|    0.824017|    0.012001|
|         199|   -5.272641|   -7.893613|    0.824016|    0.012001|
|         200|   -5.278402|   -7.895260|    0.824016|    0.012000|
|         201|   -5.284565|   -7.897053|    0.824016|    0.011999|
+-----------------------------------------------------------------------+
|Fixed CL Mode                           |Value                         |
+-----------------------------------------------------------------------+
|Current CL                              |0.824016                      |
|Target CL                               |0.824                         |
|Previous AOA                            |2.7662                        |
|Changed AoA by                          |-8.01887e-05                  |
+-----------------------------------------------------------------------+
+----------------------------------------------------------------+
|  Inner_Iter|    rms[Rho]|     rms[nu]|          CL|          CD|
+----------------------------------------------------------------+
|         202|   -4.287436|   -7.876371|    0.824015|    0.011998|
|         203|   -4.663692|   -7.888963|    0.824015|    0.011998|
|         204|   -4.885754|   -7.894396|    0.824014|    0.011997|
|         205|   -4.949626|   -7.898795|    0.824014|    0.011997|
|         206|   -4.992084|   -7.903128|    0.824014|    0.011996|
|         207|   -5.046412|   -7.907608|    0.824013|    0.011996|
|         208|   -5.109431|   -7.912283|    0.824013|    0.011996|
|         209|   -5.168738|   -7.917147|    0.824013|    0.011995|
|         210|   -5.213811|   -7.922148|    0.824012|    0.011995|
|         211|   -5.243137|   -7.927196|    0.824012|    0.011994|
|         212|   -5.260843|   -7.932189|    0.824012|    0.011994|
|         213|   -5.270778|   -7.937046|    0.824012|    0.011994|
|         214|   -5.275595|   -7.941700|    0.824012|    0.011993|
|         215|   -5.277882|   -7.946086|    0.824011|    0.011993|
|         216|   -5.280114|   -7.950126|    0.824011|    0.011993|
|         217|   -5.283827|   -7.953742|    0.824011|    0.011992|
|         218|   -5.289206|   -7.956864|    0.824011|    0.011992|
|         219|   -5.295409|   -7.959441|    0.824011|    0.011992|
|         220|   -5.301321|   -7.961440|    0.824012|    0.011992|
|         221|   -5.306243|   -7.962846|    0.824012|    0.011992|
|         222|   -5.310159|   -7.963657|    0.824012|    0.011991|
|         223|   -5.313519|   -7.963889|    0.824012|    0.011991|
|         224|   -5.316849|   -7.963576|    0.824013|    0.011991|
|         225|   -5.320480|   -7.962773|    0.824013|    0.011991|
|         226|   -5.324516|   -7.961559|    0.824013|    0.011991|
|         227|   -5.328924|   -7.960022|    0.824014|    0.011991|
|         228|   -5.333638|   -7.958258|    0.824014|    0.011991|
|         229|   -5.338620|   -7.956366|    0.824015|    0.011991|
|         230|   -5.343867|   -7.954442|    0.824016|    0.011991|
|         231|   -5.349414|   -7.952577|    0.824016|    0.011991|
|         232|   -5.355332|   -7.950854|    0.824017|    0.011991|
|         233|   -5.361735|   -7.949343|    0.824018|    0.011991|
|         234|   -5.368766|   -7.948102|    0.824018|    0.011991|
|         235|   -5.376569|   -7.947176|    0.824019|    0.011991|
|         236|   -5.385260|   -7.946596|    0.824020|    0.011992|
|         237|   -5.394904|   -7.946379|    0.824021|    0.011992|
|         238|   -5.405492|   -7.946524|    0.824022|    0.011992|
|         239|   -5.416944|   -7.947018|    0.824023|    0.011992|
|         240|   -5.429107|   -7.947832|    0.824024|    0.011992|
|         241|   -5.441778|   -7.948926|    0.824024|    0.011993|
|         242|   -5.454724|   -7.950245|    0.824025|    0.011993|
|         243|   -5.467719|   -7.951726|    0.824026|    0.011993|
|         244|   -5.480580|   -7.953297|    0.824027|    0.011993|
|         245|   -5.493185|   -7.954882|    0.824028|    0.011994|
|         246|   -5.505487|   -7.956403|    0.824029|    0.011994|
|         247|   -5.517493|   -7.957781|    0.824030|    0.011994|
|         248|   -5.529237|   -7.958948|    0.824031|    0.011994|
|         249|   -5.540742|   -7.959840|    0.824031|    0.011995|
|         250|   -5.551998|   -7.960410|    0.824032|    0.011995|
|         251|   -5.562945|   -7.960625|    0.824033|    0.011995|
|         252|   -5.573473|   -7.960471|    0.824033|    0.011996|
|         253|   -5.583446|   -7.959954|    0.824034|    0.011996|
|         254|   -5.592718|   -7.959102|    0.824034|    0.011996|
|         255|   -5.601164|   -7.957960|    0.824035|    0.011996|
|         256|   -5.608700|   -7.956586|    0.824035|    0.011997|
|         257|   -5.615291|   -7.955054|    0.824035|    0.011997|
|         258|   -5.620950|   -7.953446|    0.824035|    0.011997|
|         259|   -5.625730|   -7.951847|    0.824035|    0.011998|
|         260|   -5.629709|   -7.950345|    0.824035|    0.011998|
|         261|   -5.632970|   -7.949021|    0.824035|    0.011998|
|         262|   -5.635599|   -7.947950|    0.824035|    0.011998|
|         263|   -5.637670|   -7.947198|    0.824035|    0.011998|
|         264|   -5.639247|   -7.946816|    0.824035|    0.011999|
|         265|   -5.640388|   -7.946844|    0.824034|    0.011999|
|         266|   -5.641143|   -7.947305|    0.824034|    0.011999|
|         267|   -5.641563|   -7.948203|    0.824033|    0.011999|
|         268|   -5.641695|   -7.949526|    0.824032|    0.011999|
|         269|   -5.641587|   -7.951244|    0.824032|    0.012000|
|         270|   -5.641287|   -7.953309|    0.824031|    0.012000|
|         271|   -5.640841|   -7.955656|    0.824030|    0.012000|
|         272|   -5.640289|   -7.958204|    0.824030|    0.012000|
|         273|   -5.639673|   -7.960856|    0.824029|    0.012000|
|         274|   -5.639026|   -7.963509|    0.824028|    0.012000|
|         275|   -5.638379|   -7.966050|    0.824027|    0.012000|
|         276|   -5.637761|   -7.968368|    0.824026|    0.012000|
|         277|   -5.637196|   -7.970358|    0.824026|    0.012000|
|         278|   -5.636707|   -7.971925|    0.824025|    0.012000|
|         279|   -5.636314|   -7.972995|    0.824024|    0.012000|
|         280|   -5.636036|   -7.973520|    0.824023|    0.012001|
|         281|   -5.635888|   -7.973479|    0.824023|    0.012001|
|         282|   -5.635884|   -7.972880|    0.824022|    0.012001|
|         283|   -5.636036|   -7.971763|    0.824021|    0.012001|
|         284|   -5.636353|   -7.970195|    0.824021|    0.012001|
|         285|   -5.636841|   -7.968265|    0.824020|    0.012001|
|         286|   -5.637503|   -7.966078|    0.824020|    0.012001|
|         287|   -5.638341|   -7.963750|    0.824019|    0.012001|
|         288|   -5.639351|   -7.961401|    0.824019|    0.012000|
|         289|   -5.640531|   -7.959150|    0.824019|    0.012000|
|         290|   -5.641873|   -7.957106|    0.824019|    0.012000|
|         291|   -5.643370|   -7.955371|    0.824018|    0.012000|
|         292|   -5.645011|   -7.954032|    0.824018|    0.012000|
|         293|   -5.646787|   -7.953162|    0.824018|    0.012000|
|         294|   -5.648684|   -7.952819|    0.824018|    0.012000|
|         295|   -5.650693|   -7.953045|    0.824018|    0.012000|
|         296|   -5.652801|   -7.953866|    0.824018|    0.012000|
|         297|   -5.654998|   -7.955294|    0.824018|    0.012000|
|         298|   -5.657273|   -7.957325|    0.824018|    0.012000|
|         299|   -5.659619|   -7.959945|    0.824018|    0.011999|
|         300|   -5.662028|   -7.963126|    0.824018|    0.011999|
|         301|   -5.664494|   -7.966829|    0.824019|    0.011998|
+-----------------------------------------------------------------------+
|Fixed CL Mode                           |Value                         |
+-----------------------------------------------------------------------+
|Current CL                              |0.824019                      |
|Target CL                               |0.824                         |
|Previous AOA                            |2.76612                       |
|Changed AoA by                          |-9.20741e-05                  |
+-----------------------------------------------------------------------+
+----------------------------------------------------------------+
|  Inner_Iter|    rms[Rho]|     rms[nu]|          CL|          CD|
+----------------------------------------------------------------+
|         302|   -4.228879|   -7.932005|    0.824019|    0.011998|
|         303|   -4.611492|   -7.954973|    0.824019|    0.011998|
|         304|   -4.850930|   -7.965600|    0.824019|    0.011997|
|         305|   -4.927146|   -7.973931|    0.824019|    0.011997|
|         306|   -4.978929|   -7.981523|    0.824020|    0.011997|
|         307|   -5.045523|   -7.988713|    0.824020|    0.011997|
|         308|   -5.126479|   -7.995593|    0.824020|    0.011997|
|         309|   -5.208929|   -8.002213|    0.824020|    0.011996|
|         310|   -5.277836|   -8.008593|    0.824021|    0.011996|
|         311|   -5.327012|   -8.014720|    0.824021|    0.011996|
|         312|   -5.359139|   -8.020583|    0.824021|    0.011996|
|         313|   -5.378150|   -8.026209|    0.824022|    0.011996|
|         314|   -5.387439|   -8.031657|    0.824022|    0.011996|
|         315|   -5.391704|   -8.036966|    0.824022|    0.011995|
|         316|   -5.396220|   -8.042149|    0.824023|    0.011995|
|         317|   -5.404569|   -8.047200|    0.824023|    0.011995|
|         318|   -5.417594|   -8.052122|    0.824023|    0.011995|
|         319|   -5.433858|   -8.056940|    0.824023|    0.011995|
|         320|   -5.450949|   -8.061696|    0.824024|    0.011994|
|         321|   -5.466955|   -8.066427|    0.824024|    0.011994|
|         322|   -5.481349|   -8.071163|    0.824024|    0.011994|
|         323|   -5.494784|   -8.075922|    0.824025|    0.011994|
|         324|   -5.508205|   -8.080711|    0.824025|    0.011994|
|         325|   -5.522095|   -8.085539|    0.824025|    0.011994|
|         326|   -5.536266|   -8.090421|    0.824026|    0.011993|
|         327|   -5.550084|   -8.095381|    0.824026|    0.011993|
|         328|   -5.562816|   -8.100445|    0.824026|    0.011993|
|         329|   -5.573876|   -8.105645|    0.824027|    0.011993|
|         330|   -5.582937|   -8.111012|    0.824027|    0.011993|
|         331|   -5.589965|   -8.116573|    0.824027|    0.011993|
|         332|   -5.595223|   -8.122353|    0.824028|    0.011993|
|         333|   -5.599231|   -8.128364|    0.824028|    0.011993|
|         334|   -5.602647|   -8.134609|    0.824028|    0.011992|
|         335|   -5.606117|   -8.141081|    0.824029|    0.011992|
|         336|   -5.610126|   -8.147761|    0.824029|    0.011992|
|         337|   -5.614916|   -8.154624|    0.824029|    0.011992|
|         338|   -5.620465|   -8.161634|    0.824030|    0.011992|
|         339|   -5.626511|   -8.168751|    0.824030|    0.011992|
|         340|   -5.632617|   -8.175931|    0.824030|    0.011992|
|         341|   -5.638265|   -8.183125|    0.824031|    0.011992|
|         342|   -5.642971|   -8.190287|    0.824031|    0.011992|
|         343|   -5.646412|   -8.197371|    0.824031|    0.011992|
|         344|   -5.648509|   -8.204328|    0.824031|    0.011992|
|         345|   -5.649442|   -8.211111|    0.824032|    0.011992|
|         346|   -5.649587|   -8.217674|    0.824032|    0.011992|
|         347|   -5.649401|   -8.223968|    0.824032|    0.011992|
|         348|   -5.649307|   -8.229942|    0.824032|    0.011992|
|         349|   -5.649609|   -8.235547|    0.824033|    0.011992|
|         350|   -5.650459|   -8.240734|    0.824033|    0.011992|
|         351|   -5.651865|   -8.245456|    0.824033|    0.011992|
|         352|   -5.653725|   -8.249673|    0.824033|    0.011992|
|         353|   -5.655881|   -8.253349|    0.824033|    0.011992|
|         354|   -5.658170|   -8.256463|    0.824033|    0.011992|
|         355|   -5.660465|   -8.259006|    0.824033|    0.011993|
|         356|   -5.662699|   -8.260984|    0.824033|    0.011993|
|         357|   -5.664871|   -8.262418|    0.824033|    0.011993|
|         358|   -5.667033|   -8.263344|    0.824033|    0.011993|
|         359|   -5.669272|   -8.263816|    0.824033|    0.011993|
|         360|   -5.671688|   -8.263902|    0.824032|    0.011993|
|         361|   -5.674369|   -8.263684|    0.824032|    0.011993|
|         362|   -5.677388|   -8.263250|    0.824032|    0.011993|
|         363|   -5.680790|   -8.262697|    0.824031|    0.011993|
|         364|   -5.684600|   -8.262120|    0.824031|    0.011993|
|         365|   -5.688827|   -8.261618|    0.824031|    0.011993|
|         366|   -5.693466|   -8.261283|    0.824030|    0.011993|
|         367|   -5.698511|   -8.261203|    0.824030|    0.011994|
|         368|   -5.703952|   -8.261457|    0.824029|    0.011994|
|         369|   -5.709783|   -8.262115|    0.824029|    0.011994|
|         370|   -5.715995|   -8.263237|    0.824028|    0.011994|
|         371|   -5.722580|   -8.264872|    0.824028|    0.011994|
|         372|   -5.729528|   -8.267048|    0.824027|    0.011994|
|         373|   -5.736821|   -8.269780|    0.824026|    0.011994|
|         374|   -5.744439|   -8.273060|    0.824026|    0.011994|
|         375|   -5.752352|   -8.276869|    0.824025|    0.011994|
|         376|   -5.760526|   -8.281170|    0.824025|    0.011994|
|         377|   -5.768917|   -8.285907|    0.824024|    0.011995|
|         378|   -5.777477|   -8.291006|    0.824024|    0.011995|
|         379|   -5.786153|   -8.296374|    0.824023|    0.011995|
|         380|   -5.794885|   -8.301900|    0.824023|    0.011995|
|         381|   -5.803610|   -8.307457|    0.824022|    0.011995|
|         382|   -5.812262|   -8.312908|    0.824022|    0.011995|
|         383|   -5.820771|   -8.318106|    0.824021|    0.011995|
|         384|   -5.829066|   -8.322906|    0.824021|    0.011995|
|         385|   -5.837078|   -8.327170|    0.824020|    0.011995|
|         386|   -5.844739|   -8.330779|    0.824020|    0.011995|
|         387|   -5.851983|   -8.333637|    0.824020|    0.011995|
|         388|   -5.858752|   -8.335682|    0.824019|    0.011995|
|         389|   -5.864994|   -8.336892|    0.824019|    0.011995|
|         390|   -5.870668|   -8.337284|    0.824019|    0.011995|
|         391|   -5.875740|   -8.336917|    0.824019|    0.011995|
|         392|   -5.880191|   -8.335883|    0.824018|    0.011995|
|         393|   -5.884011|   -8.334305|    0.824018|    0.011995|
|         394|   -5.887200|   -8.332325|    0.824018|    0.011996|
|         395|   -5.889771|   -8.330096|    0.824018|    0.011996|
|         396|   -5.891744|   -8.327777|    0.824018|    0.011996|
|         397|   -5.893148|   -8.325517|    0.824018|    0.011996|
|         398|   -5.894019|   -8.323458|    0.824018|    0.011996|
|         399|   -5.894397|   -8.321727|    0.824018|    0.011996|
|         400|   -5.894324|   -8.320436|    0.824018|    0.011996|
|         401|   -5.893849|   -8.319677|    0.824018|    0.011994|
+-----------------------------------------------------------------------+
|Fixed CL Mode                           |Value                         |
+-----------------------------------------------------------------------+
|Current CL                              |0.824018                      |
|Target CL                               |0.824                         |
|Previous AOA                            |2.76603                       |
|Changed AoA by                          |-8.80353e-05                  |
+-----------------------------------------------------------------------+
+----------------------------------------------------------------+
|  Inner_Iter|    rms[Rho]|     rms[nu]|          CL|          CD|
+----------------------------------------------------------------+
|         402|   -4.248695|   -8.183388|    0.824018|    0.011994|
|         403|   -4.632688|   -8.243038|    0.824018|    0.011994|
|         404|   -4.874913|   -8.264951|    0.824018|    0.011994|
|         405|   -4.952261|   -8.278713|    0.824018|    0.011994|
|         406|   -5.004908|   -8.289724|    0.824018|    0.011994|
|         407|   -5.073293|   -8.299319|    0.824018|    0.011994|
|         408|   -5.157504|   -8.307973|    0.824018|    0.011994|
|         409|   -5.244761|   -8.316006|    0.824018|    0.011994|
|         410|   -5.319126|   -8.323624|    0.824018|    0.011994|
|         411|   -5.373004|   -8.330871|    0.824018|    0.011994|
|         412|   -5.408346|   -8.337777|    0.824018|    0.011994|
|         413|   -5.428959|   -8.344494|    0.824018|    0.011994|
|         414|   -5.438455|   -8.351253|    0.824018|    0.011994|
|         415|   -5.442183|   -8.358193|    0.824018|    0.011994|
|         416|   -5.446208|   -8.365292|    0.824018|    0.011994|
|         417|   -5.454625|   -8.372411|    0.824018|    0.011994|
|         418|   -5.468400|   -8.379407|    0.824018|    0.011994|
|         419|   -5.485925|   -8.386186|    0.824018|    0.011994|
|         420|   -5.504463|   -8.392706|    0.824018|    0.011993|
|         421|   -5.521816|   -8.398905|    0.824018|    0.011993|
|         422|   -5.537373|   -8.404678|    0.824018|    0.011993|
|         423|   -5.551918|   -8.409874|    0.824018|    0.011993|
|         424|   -5.566595|   -8.414314|    0.824018|    0.011993|
|         425|   -5.582002|   -8.417846|    0.824018|    0.011993|
|         426|   -5.597938|   -8.420396|    0.824018|    0.011993|
|         427|   -5.613648|   -8.421939|    0.824018|    0.011993|
|         428|   -5.628235|   -8.422516|    0.824018|    0.011993|
|         429|   -5.640975|   -8.422223|    0.824018|    0.011993|
|         430|   -5.651470|   -8.421196|    0.824018|    0.011993|
|         431|   -5.659713|   -8.419602|    0.824018|    0.011993|
|         432|   -5.666095|   -8.417591|    0.824018|    0.011993|
|         433|   -5.671340|   -8.415314|    0.824017|    0.011993|
|         434|   -5.676350|   -8.412898|    0.824017|    0.011993|
|         435|   -5.682006|   -8.410454|    0.824017|    0.011993|
|         436|   -5.688991|   -8.408056|    0.824017|    0.011993|
|         437|   -5.697681|   -8.405762|    0.824017|    0.011993|
|         438|   -5.708112|   -8.403609|    0.824017|    0.011993|
|         439|   -5.719993|   -8.401622|    0.824017|    0.011993|
|         440|   -5.732754|   -8.399818|    0.824016|    0.011992|
|         441|   -5.745630|   -8.398208|    0.824016|    0.011992|
|         442|   -5.757806|   -8.396806|    0.824016|    0.011992|
|         443|   -5.768602|   -8.395619|    0.824016|    0.011992|
|         444|   -5.777662|   -8.394656|    0.824016|    0.011992|
|         445|   -5.785042|   -8.393918|    0.824016|    0.011992|
|         446|   -5.791177|   -8.393400|    0.824015|    0.011992|
|         447|   -5.796720|   -8.393086|    0.824015|    0.011992|
|         448|   -5.802345|   -8.392947|    0.824015|    0.011992|
|         449|   -5.808576|   -8.392943|    0.824015|    0.011992|
|         450|   -5.815696|   -8.393021|    0.824015|    0.011992|
|         451|   -5.823729|   -8.393121|    0.824014|    0.011992|
|         452|   -5.832473|   -8.393172|    0.824014|    0.011992|
|         453|   -5.841576|   -8.393093|    0.824014|    0.011992|
|         454|   -5.850626|   -8.392807|    0.824014|    0.011993|
|         455|   -5.859241|   -8.392253|    0.824013|    0.011993|
|         456|   -5.867144|   -8.391357|    0.824013|    0.011993|
|         457|   -5.874199|   -8.390065|    0.824013|    0.011993|
|         458|   -5.880411|   -8.388342|    0.824013|    0.011993|
|         459|   -5.885890|   -8.386177|    0.824012|    0.011993|
|         460|   -5.890800|   -8.383580|    0.824012|    0.011993|
|         461|   -5.895311|   -8.380586|    0.824012|    0.011993|
|         462|   -5.899559|   -8.377250|    0.824011|    0.011993|
|         463|   -5.903635|   -8.373648|    0.824011|    0.011993|
|         464|   -5.907579|   -8.369873|    0.824010|    0.011993|
|         465|   -5.911400|   -8.366028|    0.824010|    0.011993|
|         466|   -5.915087|   -8.362224|    0.824009|    0.011993|
|         467|   -5.918625|   -8.358574|    0.824009|    0.011993|
|         468|   -5.922008|   -8.355187|    0.824009|    0.011993|
|         469|   -5.925241|   -8.352166|    0.824008|    0.011993|
|         470|   -5.928341|   -8.349604|    0.824008|    0.011993|
|         471|   -5.931333|   -8.347580|    0.824007|    0.011993|
|         472|   -5.934246|   -8.346157|    0.824007|    0.011993|
|         473|   -5.937107|   -8.345381|    0.824006|    0.011993|
|         474|   -5.939939|   -8.345278|    0.824006|    0.011994|
|         475|   -5.942762|   -8.345857|    0.824005|    0.011994|
|         476|   -5.945592|   -8.347101|    0.824005|    0.011994|
|         477|   -5.948442|   -8.348975|    0.824004|    0.011994|
|         478|   -5.951325|   -8.351421|    0.824004|    0.011994|
|         479|   -5.954252|   -8.354362|    0.824004|    0.011994|
|         480|   -5.957236|   -8.357699|    0.824003|    0.011994|
|         481|   -5.960290|   -8.361314|    0.824003|    0.011994|
|         482|   -5.963429|   -8.365077|    0.824003|    0.011994|
|         483|   -5.966666|   -8.368844|    0.824003|    0.011994|
|         484|   -5.970015|   -8.372468|    0.824002|    0.011994|
|         485|   -5.973488|   -8.375804|    0.824002|    0.011994|
|         486|   -5.977097|   -8.378720|    0.824002|    0.011994|
|         487|   -5.980853|   -8.381100|    0.824002|    0.011994|
|         488|   -5.984764|   -8.382859|    0.824002|    0.011994|
|         489|   -5.988838|   -8.383944|    0.824002|    0.011994|
|         490|   -5.993080|   -8.384341|    0.824002|    0.011994|
|         491|   -5.997495|   -8.384074|    0.824002|    0.011994|
|         492|   -6.002082|   -8.383205|    0.824002|    0.011994|
|         493|   -6.006841|   -8.381828|    0.824002|    0.011994|
|         494|   -6.011766|   -8.380058|    0.824002|    0.011994|
|         495|   -6.016849|   -8.378028|    0.824002|    0.011994|
|         496|   -6.022079|   -8.375875|    0.824002|    0.011994|
|         497|   -6.027440|   -8.373737|    0.824003|    0.011994|
|         498|   -6.032912|   -8.371743|    0.824003|    0.011994|
|         499|   -6.038472|   -8.370009|    0.824003|    0.011994|
|         500|   -6.044092|   -8.368635|    0.824003|    0.011994|
|         501|   -6.049741|   -8.367700|    0.824004|    0.011994|
+-----------------------------------------------------------------------+
|Fixed CL Mode                           |Value                         |
+-----------------------------------------------------------------------+
|Current CL                              |0.824004                      |
|Target CL                               |0.824                         |
|Previous AOA                            |2.76594                       |
|Changed AoA by                          |-1.65468e-05                  |
+-----------------------------------------------------------------------+
+----------------------------------------------------------------+
|  Inner_Iter|    rms[Rho]|     rms[nu]|          CL|          CD|
+----------------------------------------------------------------+
|         502|   -4.973491|   -8.359305|    0.824004|    0.011994|
|         503|   -5.350891|   -8.363494|    0.824004|    0.011994|
|         504|   -5.576185|   -8.365330|    0.824004|    0.011994|
|         505|   -5.642900|   -8.367199|    0.824005|    0.011994|
|         506|   -5.687292|   -8.369438|    0.824005|    0.011994|
|         507|   -5.743466|   -8.372089|    0.824005|    0.011994|
|         508|   -5.808916|   -8.375121|    0.824005|    0.011994|
|         509|   -5.871658|   -8.378487|    0.824006|    0.011994|
|         510|   -5.921125|   -8.382127|    0.824006|    0.011994|
|         511|   -5.955376|   -8.385969|    0.824006|    0.011994|
|         512|   -5.977945|   -8.389941|    0.824006|    0.011994|
|         513|   -5.992024|   -8.393979|    0.824007|    0.011994|
|         514|   -5.999804|   -8.398022|    0.824007|    0.011993|
|         515|   -6.003910|   -8.402013|    0.824007|    0.011993|
|         516|   -6.007263|   -8.405894|    0.824007|    0.011993|
|         517|   -6.011905|   -8.409617|    0.824007|    0.011993|
|         518|   -6.018337|   -8.413144|    0.824008|    0.011993|
|         519|   -6.025813|   -8.416456|    0.824008|    0.011993|
|         520|   -6.033166|   -8.419546|    0.824008|    0.011993|
|         521|   -6.039603|   -8.422421|    0.824008|    0.011993|
|         522|   -6.045027|   -8.425096|    0.824008|    0.011993|
|         523|   -6.049799|   -8.427590|    0.824008|    0.011993|
|         524|   -6.054301|   -8.429930|    0.824008|    0.011993|
|         525|   -6.058646|   -8.432146|    0.824008|    0.011993|
|         526|   -6.062672|   -8.434269|    0.824008|    0.011993|
|         527|   -6.066100|   -8.436334|    0.824008|    0.011992|
|         528|   -6.068701|   -8.438371|    0.824008|    0.011992|
|         529|   -6.070383|   -8.440408|    0.824008|    0.011992|
|         530|   -6.071200|   -8.442467|    0.824008|    0.011992|
|         531|   -6.071322|   -8.444564|    0.824007|    0.011992|
|         532|   -6.070995|   -8.446704|    0.824007|    0.011992|
|         533|   -6.070509|   -8.448887|    0.824007|    0.011992|
|         534|   -6.070149|   -8.451102|    0.824007|    0.011992|
|         535|   -6.070151|   -8.453333|    0.824007|    0.011992|
|         536|   -6.070667|   -8.455555|    0.824007|    0.011992|
|         537|   -6.071757|   -8.457744|    0.824006|    0.011992|
|         538|   -6.073393|   -8.459870|    0.824006|    0.011992|
|         539|   -6.075478|   -8.461908|    0.824006|    0.011992|
|         540|   -6.077879|   -8.463837|    0.824006|    0.011992|
|         541|   -6.080452|   -8.465643|    0.824006|    0.011992|
|         542|   -6.083077|   -8.467320|    0.824005|    0.011992|
|         543|   -6.085680|   -8.468872|    0.824005|    0.011992|
|         544|   -6.088246|   -8.470315|    0.824005|    0.011992|
|         545|   -6.090820|   -8.471672|    0.824005|    0.011992|
|         546|   -6.093489|   -8.472978|    0.824005|    0.011992|
|         547|   -6.096360|   -8.474272|    0.824004|    0.011992|
|         548|   -6.099529|   -8.475600|    0.824004|    0.011992|
|         549|   -6.103061|   -8.477008|    0.824004|    0.011992|
|         550|   -6.106983|   -8.478545|    0.824004|    0.011992|
|         551|   -6.111279|   -8.480253|    0.824004|    0.011992|
|         552|   -6.115901|   -8.482170|    0.824003|    0.011992|
|         553|   -6.120777|   -8.484323|    0.824003|    0.011992|
|         554|   -6.125834|   -8.486731|    0.824003|    0.011992|
|         555|   -6.131000|   -8.489399|    0.824003|    0.011992|
|         556|   -6.136219|   -8.492319|    0.824003|    0.011992|
|         557|   -6.141448|   -8.495470|    0.824003|    0.011992|
|         558|   -6.146662|   -8.498813|    0.824003|    0.011992|
|         559|   -6.151840|   -8.502298|    0.824003|    0.011992|
|         560|   -6.156969|   -8.505863|    0.824002|    0.011992|
|         561|   -6.162030|   -8.509433|    0.824002|    0.011992|
|         562|   -6.167002|   -8.512928|    0.824002|    0.011992|
|         563|   -6.171852|   -8.516262|    0.824002|    0.011992|
|         564|   -6.176546|   -8.519350|    0.824002|    0.011992|
|         565|   -6.181042|   -8.522114|    0.824002|    0.011993|
|         566|   -6.185298|   -8.524483|    0.824002|    0.011993|
|         567|   -6.189272|   -8.526407|    0.824002|    0.011993|
|         568|   -6.192928|   -8.527848|    0.824002|    0.011993|
|         569|   -6.196233|   -8.528796|    0.824002|    0.011993|
|         570|   -6.199161|   -8.529259|    0.824002|    0.011993|
|         571|   -6.201690|   -8.529273|    0.824001|    0.011993|
|         572|   -6.203806|   -8.528889|    0.824001|    0.011993|
|         573|   -6.205503|   -8.528177|    0.824001|    0.011994|
|         574|   -6.206777|   -8.527218|    0.824001|    0.011994|
|         575|   -6.207636|   -8.526098|    0.824001|    0.011994|
|         576|   -6.208089|   -8.524908|    0.824001|    0.011994|
|         577|   -6.208155|   -8.523733|    0.824001|    0.011994|
|         578|   -6.207860|   -8.522655|    0.824001|    0.011994|
|         579|   -6.207232|   -8.521743|    0.824000|    0.011994|
|         580|   -6.206308|   -8.521056|    0.824000|    0.011994|
|         581|   -6.205127|   -8.520639|    0.824000|    0.011995|
|         582|   -6.203732|   -8.520521|    0.824000|    0.011995|
|         583|   -6.202168|   -8.520719|    0.824000|    0.011995|
|         584|   -6.200483|   -8.521233|    0.824000|    0.011995|
|         585|   -6.198723|   -8.522050|    0.824000|    0.011995|
|         586|   -6.196936|   -8.523142|    0.824000|    0.011995|
|         587|   -6.195167|   -8.524473|    0.823999|    0.011995|
|         588|   -6.193461|   -8.526000|    0.823999|    0.011995|
|         589|   -6.191860|   -8.527669|    0.823999|    0.011995|
|         590|   -6.190404|   -8.529425|    0.823999|    0.011995|
|         591|   -6.189131|   -8.531207|    0.823999|    0.011996|
|         592|   -6.188074|   -8.532959|    0.823999|    0.011996|
|         593|   -6.187265|   -8.534624|    0.823999|    0.011996|
|         594|   -6.186732|   -8.536154|    0.823999|    0.011996|
|         595|   -6.186501|   -8.537506|    0.823999|    0.011996|
|         596|   -6.186594|   -8.538648|    0.823998|    0.011996|
|         597|   -6.187030|   -8.539558|    0.823998|    0.011996|
|         598|   -6.187825|   -8.540222|    0.823998|    0.011996|
|         599|   -6.188991|   -8.540638|    0.823998|    0.011996|
|         600|   -6.190539|   -8.540812|    0.823998|    0.011996|
|         601|   -6.192475|   -8.540758|    0.823998|    0.011996|
+-----------------------------------------------------------------------+
|Fixed CL Mode                           |Value                         |
+-----------------------------------------------------------------------+
|Current CL                              |0.823998                      |
|Target CL                               |0.824                         |
|Previous AOA                            |2.76592                       |
|Changed AoA by                          |9.56502e-06                   |
+-----------------------------------------------------------------------+
+----------------------------------------------------------------+
|  Inner_Iter|    rms[Rho]|     rms[nu]|          CL|          CD|
+----------------------------------------------------------------+
|         602|   -5.210134|   -8.534204|    0.823998|    0.011996|
|         603|   -5.584219|   -8.536971|    0.823998|    0.011996|
|         604|   -5.806348|   -8.537356|    0.823998|    0.011996|
|         605|   -5.873267|   -8.537127|    0.823998|    0.011996|
|         606|   -5.916173|   -8.536583|    0.823998|    0.011996|
|         607|   -5.967648|   -8.535830|    0.823998|    0.011996|
|         608|   -6.024626|   -8.534935|    0.823998|    0.011996|
|         609|   -6.075650|   -8.533949|    0.823998|    0.011996|
|         610|   -6.112583|   -8.532906|    0.823998|    0.011996|
|         611|   -6.136095|   -8.531827|    0.823997|    0.011996|
|         612|   -6.150887|   -8.530723|    0.823997|    0.011996|
|         613|   -6.160417|   -8.529606|    0.823997|    0.011996|
|         614|   -6.166711|   -8.528490|    0.823997|    0.011996|
|         615|   -6.171674|   -8.527388|    0.823997|    0.011996|
|         616|   -6.177211|   -8.526310|    0.823997|    0.011996|
|         617|   -6.184552|   -8.525267|    0.823997|    0.011996|
|         618|   -6.193816|   -8.524269|    0.823997|    0.011996|
|         619|   -6.204199|   -8.523333|    0.823997|    0.011996|
|         620|   -6.214578|   -8.522478|    0.823997|    0.011995|
|         621|   -6.224136|   -8.521722|    0.823997|    0.011995|
|         622|   -6.232648|   -8.521084|    0.823997|    0.011995|
|         623|   -6.240343|   -8.520582|    0.823997|    0.011995|
|         624|   -6.247555|   -8.520233|    0.823997|    0.011995|
|         625|   -6.254452|   -8.520052|    0.823997|    0.011995|
|         626|   -6.260982|   -8.520053|    0.823997|    0.011995|
|         627|   -6.266963|   -8.520246|    0.823997|    0.011995|
|         628|   -6.272194|   -8.520639|    0.823996|    0.011995|
|         629|   -6.276531|   -8.521237|    0.823996|    0.011995|
|         630|   -6.279903|   -8.522038|    0.823996|    0.011995|
|         631|   -6.282324|   -8.523037|    0.823996|    0.011994|
|         632|   -6.283887|   -8.524227|    0.823996|    0.011994|
|         633|   -6.284759|   -8.525592|    0.823996|    0.011994|
|         634|   -6.285151|   -8.527118|    0.823996|    0.011994|
|         635|   -6.285285|   -8.528784|    0.823996|    0.011994|
|         636|   -6.285344|   -8.530568|    0.823996|    0.011994|
|         637|   -6.285455|   -8.532448|    0.823996|    0.011994|
|         638|   -6.285677|   -8.534402|    0.823996|    0.011994|
|         639|   -6.286009|   -8.536407|    0.823996|    0.011994|
|         640|   -6.286410|   -8.538445|    0.823996|    0.011994|
|         641|   -6.286821|   -8.540499|    0.823996|    0.011994|
|         642|   -6.287191|   -8.542557|    0.823996|    0.011993|
|         643|   -6.287497|   -8.544610|    0.823996|    0.011993|
|         644|   -6.287758|   -8.546657|    0.823996|    0.011993|
|         645|   -6.288038|   -8.548698|    0.823996|    0.011993|
|         646|   -6.288429|   -8.550741|    0.823996|    0.011993|
|         647|   -6.289036|   -8.552793|    0.823996|    0.011993|
|         648|   -6.289955|   -8.554869|    0.823996|    0.011993|
|         649|   -6.291257|   -8.556988|    0.823996|    0.011993|
|         650|   -6.292984|   -8.559172|    0.823996|    0.011993|
|         651|   -6.295144|   -8.561445|    0.823996|    0.011993|
|         652|   -6.297724|   -8.563831|    0.823997|    0.011993|
|         653|   -6.300693|   -8.566355|    0.823997|    0.011993|
|         654|   -6.304019|   -8.569041|    0.823997|    0.011993|
|         655|   -6.307676|   -8.571910|    0.823997|    0.011993|
|         656|   -6.311645|   -8.574983|    0.823997|    0.011993|
|         657|   -6.315918|   -8.578277|    0.823997|    0.011993|
|         658|   -6.320500|   -8.581806|    0.823997|    0.011993|
|         659|   -6.325397|   -8.585581|    0.823998|    0.011993|
|         660|   -6.330618|   -8.589607|    0.823998|    0.011993|
|         661|   -6.336168|   -8.593887|    0.823998|    0.011993|
|         662|   -6.342049|   -8.598420|    0.823998|    0.011993|
|         663|   -6.348251|   -8.603199|    0.823998|    0.011993|
|         664|   -6.354760|   -8.608213|    0.823999|    0.011993|
|         665|   -6.361555|   -8.613450|    0.823999|    0.011993|
|         666|   -6.368608|   -8.618890|    0.823999|    0.011993|
|         667|   -6.375888|   -8.624514|    0.823999|    0.011993|
|         668|   -6.383359|   -8.630298|    0.823999|    0.011993|
|         669|   -6.390981|   -8.636215|    0.824000|    0.011993|
|         670|   -6.398713|   -8.642237|    0.824000|    0.011993|
|         671|   -6.406508|   -8.648336|    0.824000|    0.011993|
|         672|   -6.414315|   -8.654482|    0.824000|    0.011993|
|         673|   -6.422079|   -8.660649|    0.824000|    0.011993|
|         674|   -6.429743|   -8.666807|    0.824000|    0.011993|
|         675|   -6.437243|   -8.672932|    0.824001|    0.011993|
|         676|   -6.444516|   -8.679002|    0.824001|    0.011993|
|         677|   -6.451495|   -8.684999|    0.824001|    0.011993|
|         678|   -6.458117|   -8.690906|    0.824001|    0.011993|
|         679|   -6.464320|   -8.696715|    0.824001|    0.011994|
|         680|   -6.470046|   -8.702420|    0.824001|    0.011994|
|         681|   -6.475245|   -8.708018|    0.824001|    0.011994|
|         682|   -6.479876|   -8.713514|    0.824001|    0.011994|
|         683|   -6.483908|   -8.718914|    0.824002|    0.011994|
|         684|   -6.487322|   -8.724229|    0.824002|    0.011994|
|         685|   -6.490115|   -8.729474|    0.824002|    0.011994|
|         686|   -6.492293|   -8.734663|    0.824002|    0.011994|
|         687|   -6.493879|   -8.739816|    0.824002|    0.011994|
|         688|   -6.494908|   -8.744949|    0.824002|    0.011994|
|         689|   -6.495424|   -8.750082|    0.824002|    0.011994|
|         690|   -6.495484|   -8.755232|    0.824002|    0.011995|
|         691|   -6.495149|   -8.760415|    0.824002|    0.011995|
|         692|   -6.494490|   -8.765645|    0.824002|    0.011995|
|         693|   -6.493576|   -8.770935|    0.824002|    0.011995|
|         694|   -6.492482|   -8.776293|    0.824002|    0.011995|
|         695|   -6.491279|   -8.781727|    0.824002|    0.011995|
|         696|   -6.490039|   -8.787238|    0.824002|    0.011995|
|         697|   -6.488828|   -8.792829|    0.824002|    0.011995|
|         698|   -6.487711|   -8.798495|    0.824001|    0.011995|
|         699|   -6.486745|   -8.804231|    0.824001|    0.011995|
|         700|   -6.485985|   -8.810029|    0.824001|    0.011995|
|         701|   -6.485479|   -8.815879|    0.824001|    0.011995|
+-----------------------------------------------------------------------+
|Fixed CL Mode                           |Value                         |
+-----------------------------------------------------------------------+
|Current CL                              |0.824001                      |
|Target CL                               |0.824                         |
|Previous AOA                            |2.76593                       |
|Changed AoA by                          |-6.40254e-06                  |
+-----------------------------------------------------------------------+
+----------------------------------------------------------------+
|  Inner_Iter|    rms[Rho]|     rms[nu]|          CL|          CD|
+----------------------------------------------------------------+
|         702|   -5.385989|   -8.812550|    0.824001|    0.011995|
|         703|   -5.766943|   -8.823046|    0.824001|    0.011995|
|         704|   -6.003179|   -8.830084|    0.824001|    0.011996|
|         705|   -6.075874|   -8.836541|    0.824001|    0.011996|
|         706|   -6.121784|   -8.842857|    0.824001|    0.011996|
|         707|   -6.178178|   -8.849092|    0.824001|    0.011996|
|         708|   -6.242560|   -8.855220|    0.824000|    0.011996|
|         709|   -6.301766|   -8.861195|    0.824000|    0.011996|
|         710|   -6.344856|   -8.866982|    0.824000|    0.011996|
|         711|   -6.371333|   -8.872551|    0.824000|    0.011996|
|         712|   -6.386607|   -8.877891|    0.824000|    0.011996|
|         713|   -6.395104|   -8.883013|    0.824000|    0.011996|
|         714|   -6.399609|   -8.887943|    0.824000|    0.011996|
|         715|   -6.402776|   -8.892701|    0.824000|    0.011996|
|         716|   -6.407161|   -8.897302|    0.823999|    0.011996|
|         717|   -6.414331|   -8.901748|    0.823999|    0.011996|
|         718|   -6.424384|   -8.906040|    0.823999|    0.011996|
|         719|   -6.436216|   -8.910177|    0.823999|    0.011996|
|         720|   -6.448298|   -8.914158|    0.823999|    0.011996|
|         721|   -6.459497|   -8.917980|    0.823999|    0.011996|
|         722|   -6.469501|   -8.921635|    0.823999|    0.011996|
|         723|   -6.478664|   -8.925111|    0.823999|    0.011996|
|         724|   -6.487541|   -8.928394|    0.823998|    0.011996|
|         725|   -6.496500|   -8.931474|    0.823998|    0.011996|
|         726|   -6.505605|   -8.934340|    0.823998|    0.011996|
|         727|   -6.514703|   -8.936985|    0.823998|    0.011996|
|         728|   -6.523553|   -8.939405|    0.823998|    0.011996|
|         729|   -6.531912|   -8.941598|    0.823998|    0.011996|
|         730|   -6.539579|   -8.943565|    0.823998|    0.011996|
|         731|   -6.546420|   -8.945311|    0.823998|    0.011996|
|         732|   -6.552404|   -8.946846|    0.823998|    0.011996|
|         733|   -6.557618|   -8.948193|    0.823998|    0.011995|
|         734|   -6.562253|   -8.949382|    0.823997|    0.011995|
|         735|   -6.566548|   -8.950422|    0.823997|    0.011995|
|         736|   -6.570724|   -8.951323|    0.823997|    0.011995|
|         737|   -6.574931|   -8.952104|    0.823997|    0.011995|
|         738|   -6.579218|   -8.952788|    0.823997|    0.011995|
|         739|   -6.583533|   -8.953401|    0.823997|    0.011995|
|         740|   -6.587738|   -8.953973|    0.823997|    0.011995|
|         741|   -6.591651|   -8.954536|    0.823997|    0.011995|
|         742|   -6.595094|   -8.955121|    0.823997|    0.011995|
|         743|   -6.597941|   -8.955760|    0.823997|    0.011995|
|         744|   -6.600154|   -8.956482|    0.823997|    0.011995|
|         745|   -6.601797|   -8.957316|    0.823997|    0.011995|
|         746|   -6.603009|   -8.958285|    0.823997|    0.011995|
|         747|   -6.603976|   -8.959413|    0.823997|    0.011995|
|         748|   -6.604880|   -8.960719|    0.823997|    0.011994|
|         749|   -6.605863|   -8.962218|    0.823997|    0.011994|
|         750|   -6.607012|   -8.963924|    0.823997|    0.011994|
|         751|   -6.608354|   -8.965848|    0.823997|    0.011994|
|         752|   -6.609870|   -8.967997|    0.823997|    0.011994|
|         753|   -6.611511|   -8.970378|    0.823997|    0.011994|
|         754|   -6.613222|   -8.972995|    0.823997|    0.011994|
|         755|   -6.614959|   -8.975850|    0.823997|    0.011994|
|         756|   -6.616694|   -8.978945|    0.823997|    0.011994|
|         757|   -6.618424|   -8.982280|    0.823997|    0.011994|
|         758|   -6.620162|   -8.985856|    0.823997|    0.011994|
|         759|   -6.621932|   -8.989672|    0.823997|    0.011994|
|         760|   -6.623762|   -8.993726|    0.823997|    0.011994|
|         761|   -6.625672|   -8.998018|    0.823997|    0.011994|
|         762|   -6.627676|   -9.002545|    0.823997|    0.011994|
|         763|   -6.629776|   -9.007304|    0.823996|    0.011994|
|         764|   -6.631962|   -9.012295|    0.823996|    0.011993|
|         765|   -6.634217|   -9.017514|    0.823996|    0.011993|
|         766|   -6.636519|   -9.022957|    0.823996|    0.011993|
|         767|   -6.638842|   -9.028619|    0.823996|    0.011993|
|         768|   -6.641161|   -9.034495|    0.823996|    0.011993|
|         769|   -6.643448|   -9.040579|    0.823996|    0.011993|
|         770|   -6.645677|   -9.046862|    0.823997|    0.011993|
|         771|   -6.647820|   -9.053334|    0.823997|    0.011993|
|         772|   -6.649852|   -9.059983|    0.823997|    0.011993|
|         773|   -6.651747|   -9.066796|    0.823997|    0.011993|
|         774|   -6.653477|   -9.073756|    0.823997|    0.011993|
|         775|   -6.655019|   -9.080846|    0.823997|    0.011993|
|         776|   -6.656348|   -9.088048|    0.823997|    0.011993|
|         777|   -6.657446|   -9.095341|    0.823997|    0.011993|
|         778|   -6.658293|   -9.102704|    0.823997|    0.011993|
|         779|   -6.658877|   -9.110115|    0.823997|    0.011993|
|         780|   -6.659189|   -9.117554|    0.823997|    0.011993|
|         781|   -6.659224|   -9.124998|    0.823997|    0.011993|
|         782|   -6.658983|   -9.132426|    0.823997|    0.011993|
|         783|   -6.658471|   -9.139817|    0.823997|    0.011993|
|         784|   -6.657697|   -9.147151|    0.823997|    0.011993|
|         785|   -6.656677|   -9.154408|    0.823997|    0.011993|
|         786|   -6.655428|   -9.161568|    0.823997|    0.011993|
|         787|   -6.653973|   -9.168609|    0.823997|    0.011993|
|         788|   -6.652337|   -9.175510|    0.823997|    0.011993|
|         789|   -6.650548|   -9.182248|    0.823997|    0.011994|
|         790|   -6.648637|   -9.188795|    0.823997|    0.011994|
|         791|   -6.646634|   -9.195124|    0.823998|    0.011994|
|         792|   -6.644574|   -9.201195|    0.823998|    0.011994|
|         793|   -6.642488|   -9.206963|    0.823998|    0.011994|
|         794|   -6.640409|   -9.212399|    0.823998|    0.011994|
|         795|   -6.638370|   -9.217471|    0.823998|    0.011994|
|         796|   -6.636401|   -9.222149|    0.823998|    0.011994|
|         797|   -6.634531|   -9.226404|    0.823998|    0.011994|
|         798|   -6.632786|   -9.230206|    0.823998|    0.011994|
|         799|   -6.631193|   -9.233529|    0.823998|    0.011994|
|         800|   -6.629772|   -9.236352|    0.823998|    0.011994|
|         801|   -6.628544|   -9.238661|    0.823998|    0.011994|
+-----------------------------------------------------------------------+
|Fixed CL Mode                           |Value                         |
+-----------------------------------------------------------------------+
|Current CL                              |0.823998                      |
|Target CL                               |0.824                         |
|Previous AOA                            |2.76593                       |
|Changed AoA by                          |9.44313e-06                   |
+-----------------------------------------------------------------------+
+----------------------------------------------------------------+
|  Inner_Iter|    rms[Rho]|     rms[nu]|          CL|          CD|
+----------------------------------------------------------------+
|         802|   -5.217937|   -9.123965|    0.823998|    0.011994|
|         803|   -5.600773|   -9.176540|    0.823998|    0.011994|
|         804|   -5.840317|   -9.195294|    0.823998|    0.011995|
|         805|   -5.915957|   -9.205879|    0.823998|    0.011995|
|         806|   -5.966988|   -9.212894|    0.823998|    0.011995|
|         807|   -6.032688|   -9.217612|    0.823998|    0.011995|
|         808|   -6.112381|   -9.220670|    0.823998|    0.011995|
|         809|   -6.192997|   -9.222564|    0.823998|    0.011995|
|         810|   -6.259578|   -9.223669|    0.823998|    0.011995|
|         811|   -6.306310|   -9.224182|    0.823998|    0.011995|
|         812|   -6.336258|   -9.224248|    0.823999|    0.011995|
|         813|   -6.353631|   -9.224074|    0.823999|    0.011995|
|         814|   -6.361926|   -9.223891|    0.823999|    0.011995|
|         815|   -6.365643|   -9.223860|    0.823998|    0.011995|
|         816|   -6.369682|   -9.224039|    0.823998|    0.011995|
|         817|   -6.377312|   -9.224431|    0.823998|    0.011995|
|         818|   -6.389225|   -9.225047|    0.823998|    0.011995|
|         819|   -6.403996|   -9.225938|    0.823998|    0.011995|
|         820|   -6.419334|   -9.227176|    0.823998|    0.011995|
|         821|   -6.433468|   -9.228823|    0.823998|    0.011995|
|         822|   -6.445928|   -9.230902|    0.823998|    0.011995|
|         823|   -6.457317|   -9.233407|    0.823998|    0.011995|
|         824|   -6.468486|   -9.236293|    0.823998|    0.011996|
|         825|   -6.479849|   -9.239520|    0.823998|    0.011996|
|         826|   -6.491230|   -9.243043|    0.823998|    0.011996|
|         827|   -6.502082|   -9.246827|    0.823998|    0.011996|
|         828|   -6.511795|   -9.250839|    0.823998|    0.011996|
|         829|   -6.519915|   -9.255047|    0.823998|    0.011996|
|         830|   -6.526216|   -9.259414|    0.823998|    0.011996|
|         831|   -6.530719|   -9.263899|    0.823998|    0.011996|
|         832|   -6.533680|   -9.268447|    0.823998|    0.011996|
|         833|   -6.535551|   -9.272971|    0.823998|    0.011996|
|         834|   -6.536880|   -9.277451|    0.823998|    0.011996|
|         835|   -6.538193|   -9.281737|    0.823998|    0.011996|
|         836|   -6.539877|   -9.285718|    0.823998|    0.011996|
|         837|   -6.542124|   -9.289271|    0.823997|    0.011996|
|         838|   -6.544917|   -9.292263|    0.823997|    0.011996|
|         839|   -6.548059|   -9.294560|    0.823997|    0.011996|
|         840|   -6.551234|   -9.296025|    0.823997|    0.011996|
|         841|   -6.554077|   -9.296576|    0.823997|    0.011996|
|         842|   -6.556265|   -9.296112|    0.823997|    0.011996|
|         843|   -6.557599|   -9.294581|    0.823997|    0.011996|
|         844|   -6.558053|   -9.291963|    0.823997|    0.011995|
|         845|   -6.557774|   -9.288272|    0.823997|    0.011995|
|         846|   -6.557039|   -9.283558|    0.823997|    0.011995|
|         847|   -6.556175|   -9.277900|    0.823997|    0.011995|
|         848|   -6.555480|   -9.271390|    0.823997|    0.011995|
|         849|   -6.555169|   -9.264169|    0.823997|    0.011995|
|         850|   -6.555352|   -9.256388|    0.823997|    0.011995|
|         851|   -6.556037|   -9.248184|    0.823997|    0.011995|
|         852|   -6.557160|   -9.239705|    0.823997|    0.011995|
|         853|   -6.558614|   -9.231100|    0.823997|    0.011995|
|         854|   -6.560291|   -9.222509|    0.823997|    0.011995|
|         855|   -6.562104|   -9.214077|    0.823997|    0.011995|
|         856|   -6.564005|   -9.205927|    0.823997|    0.011995|
|         857|   -6.565987|   -9.198176|    0.823997|    0.011995|
|         858|   -6.568076|   -9.190932|    0.823997|    0.011995|
|         859|   -6.570321|   -9.184291|    0.823997|    0.011995|
|         860|   -6.572773|   -9.178339|    0.823997|    0.011995|
|         861|   -6.575479|   -9.173150|    0.823997|    0.011995|
|         862|   -6.578470|   -9.168789|    0.823997|    0.011995|
|         863|   -6.581759|   -9.165309|    0.823997|    0.011995|
|         864|   -6.585342|   -9.162758|    0.823997|    0.011995|
|         865|   -6.589203|   -9.161170|    0.823997|    0.011995|
|         866|   -6.593316|   -9.160572|    0.823997|    0.011995|
|         867|   -6.597651|   -9.160983|    0.823997|    0.011995|
|         868|   -6.602173|   -9.162408|    0.823997|    0.011995|
|         869|   -6.606849|   -9.164845|    0.823998|    0.011995|
|         870|   -6.611643|   -9.168281|    0.823998|    0.011995|
|         871|   -6.616519|   -9.172687|    0.823998|    0.011994|
|         872|   -6.621435|   -9.178021|    0.823998|    0.011994|
|         873|   -6.626351|   -9.184226|    0.823998|    0.011994|
|         874|   -6.631218|   -9.191228|    0.823998|    0.011994|
|         875|   -6.635989|   -9.198936|    0.823998|    0.011994|
|         876|   -6.640611|   -9.207239|    0.823998|    0.011994|
|         877|   -6.645033|   -9.216008|    0.823998|    0.011994|
|         878|   -6.649202|   -9.225096|    0.823998|    0.011994|
|         879|   -6.653069|   -9.234340|    0.823999|    0.011994|
|         880|   -6.656589|   -9.243566|    0.823999|    0.011994|
|         881|   -6.659720|   -9.252596|    0.823999|    0.011994|
|         882|   -6.662428|   -9.261251|    0.823999|    0.011994|
|         883|   -6.664687|   -9.269367|    0.823999|    0.011994|
|         884|   -6.666479|   -9.276801|    0.823999|    0.011994|
|         885|   -6.667794|   -9.283443|    0.823999|    0.011994|
|         886|   -6.668632|   -9.289221|    0.823999|    0.011994|
|         887|   -6.669003|   -9.294112|    0.823999|    0.011994|
|         888|   -6.668925|   -9.298136|    0.823999|    0.011994|
|         889|   -6.668423|   -9.301356|    0.823999|    0.011994|
|         890|   -6.667530|   -9.303873|    0.823999|    0.011994|
|         891|   -6.666286|   -9.305815|    0.823999|    0.011994|
|         892|   -6.664732|   -9.307326|    0.823999|    0.011994|
|         893|   -6.662915|   -9.308555|    0.823999|    0.011994|
|         894|   -6.660880|   -9.309650|    0.823999|    0.011994|
|         895|   -6.658677|   -9.310747|    0.823999|    0.011994|
|         896|   -6.656352|   -9.311963|    0.823999|    0.011994|
|         897|   -6.653950|   -9.313397|    0.823999|    0.011994|
|         898|   -6.651516|   -9.315122|    0.823999|    0.011994|
|         899|   -6.649089|   -9.317189|    0.824000|    0.011994|
|         900|   -6.646709|   -9.319622|    0.824000|    0.011994|
|         901|   -6.644410|   -9.322423|    0.824000|    0.011994|
|         902|   -6.642225|   -9.325572|    0.824000|    0.011994|
|         903|   -6.640182|   -9.329027|    0.824000|    0.011994|
|         904|   -6.638308|   -9.332727|    0.824000|    0.011994|
|         905|   -6.636628|   -9.336596|    0.824000|    0.011994|
|         906|   -6.635162|   -9.340546|    0.824000|    0.011994|
|         907|   -6.633928|   -9.344478|    0.824000|    0.011994|
[...]
|        5298|   -6.047951|   -7.928117|    0.824239|    0.011999|
|        5299|   -6.054672|   -7.931940|    0.824239|    0.011999|
|        5300|   -6.060959|   -7.935797|    0.824240|    0.011999|
|        5301|   -6.066780|   -7.939697|    0.824240|    0.011999|
|        5302|   -6.072113|   -7.943647|    0.824240|    0.011999|
|        5303|   -6.076950|   -7.947653|    0.824240|    0.011999|
|        5304|   -6.081297|   -7.951717|    0.824240|    0.011999|
|        5305|   -6.085172|   -7.955841|    0.824240|    0.011998|
|        5306|   -6.088603|   -7.960025|    0.824240|    0.011998|
|        5307|   -6.091630|   -7.964266|    0.824240|    0.011998|
|        5308|   -6.094300|   -7.968565|    0.824240|    0.011998|
|        5309|   -6.096667|   -7.972918|    0.824240|    0.011998|
|        5310|   -6.098789|   -7.977324|    0.824240|    0.011998|
|        5311|   -6.100725|   -7.981782|    0.824241|    0.011998|
|        5312|   -6.102537|   -7.986293|    0.824241|    0.011998|
|        5313|   -6.104284|   -7.990858|    0.824241|    0.011998|
|        5314|   -6.106021|   -7.995479|    0.824241|    0.011998|
|        5315|   -6.107802|   -8.000161|    0.824241|    0.011998|
|        5316|   -6.109674|   -8.004908|    0.824241|    0.011998|
|        5317|   -6.111679|   -8.009725|    0.824241|    0.011998|
|        5318|   -6.113854|   -8.014619|    0.824241|    0.011998|
|        5319|   -6.116228|   -8.019597|    0.824241|    0.011998|
|        5320|   -6.118823|   -8.024663|    0.824242|    0.011999|
|        5321|   -6.121657|   -8.029825|    0.824242|    0.011999|
|        5322|   -6.124739|   -8.035086|    0.824242|    0.011999|
|        5323|   -6.128071|   -8.040450|    0.824242|    0.011999|
|        5324|   -6.131650|   -8.045921|    0.824242|    0.011999|
|        5325|   -6.135464|   -8.051498|    0.824242|    0.011999|
|        5326|   -6.139498|   -8.057181|    0.824242|    0.011999|
|        5327|   -6.143727|   -8.062969|    0.824243|    0.011999|
|        5328|   -6.148123|   -8.068857|    0.824243|    0.011999|
|        5329|   -6.152654|   -8.074841|    0.824243|    0.011999|
|        5330|   -6.157281|   -8.080914|    0.824243|    0.011999|
|        5331|   -6.161961|   -8.087069|    0.824243|    0.011999|
|        5332|   -6.166653|   -8.093298|    0.824243|    0.011999|
|        5333|   -6.171309|   -8.099592|    0.824244|    0.011999|
|        5334|   -6.175883|   -8.105941|    0.824244|    0.012000|
|        5335|   -6.180333|   -8.112337|    0.824244|    0.012000|
|        5336|   -6.184615|   -8.118770|    0.824244|    0.012000|
|        5337|   -6.188692|   -8.125233|    0.824244|    0.012000|
|        5338|   -6.192531|   -8.131717|    0.824244|    0.012000|
|        5339|   -6.196108|   -8.138216|    0.824244|    0.012000|
|        5340|   -6.199405|   -8.144725|    0.824245|    0.012000|
|        5341|   -6.202413|   -8.151238|    0.824245|    0.012000|
|        5342|   -6.205132|   -8.157752|    0.824245|    0.012000|
|        5343|   -6.207570|   -8.164267|    0.824245|    0.012000|
|        5344|   -6.209745|   -8.170780|    0.824245|    0.012000|
|        5345|   -6.211682|   -8.177292|    0.824245|    0.012000|
|        5346|   -6.213412|   -8.183803|    0.824245|    0.012000|
|        5347|   -6.214972|   -8.190317|    0.824245|    0.012001|
|        5348|   -6.216404|   -8.196835|    0.824246|    0.012001|
|        5349|   -6.217753|   -8.203360|    0.824246|    0.012001|
|        5350|   -6.219064|   -8.209895|    0.824246|    0.012001|
|        5351|   -6.220384|   -8.216444|    0.824246|    0.012001|
|        5352|   -6.221758|   -8.223009|    0.824246|    0.012001|
|        5353|   -6.223229|   -8.229593|    0.824246|    0.012001|
|        5354|   -6.224838|   -8.236199|    0.824246|    0.012001|
|        5355|   -6.226624|   -8.242827|    0.824246|    0.012001|
|        5356|   -6.228619|   -8.249479|    0.824246|    0.012001|
|        5357|   -6.230851|   -8.256152|    0.824246|    0.012001|
|        5358|   -6.233347|   -8.262844|    0.824246|    0.012001|
|        5359|   -6.236126|   -8.269551|    0.824246|    0.012001|
|        5360|   -6.239203|   -8.276269|    0.824246|    0.012001|
|        5361|   -6.242589|   -8.282995|    0.824246|    0.012001|
|        5362|   -6.246290|   -8.289725|    0.824246|    0.012001|
|        5363|   -6.250305|   -8.296454|    0.824246|    0.012001|
|        5364|   -6.254629|   -8.303178|    0.824246|    0.012001|
|        5365|   -6.259253|   -8.309892|    0.824246|    0.012001|
|        5366|   -6.264161|   -8.316591|    0.824247|    0.012001|
|        5367|   -6.269335|   -8.323271|    0.824246|    0.012001|
|        5368|   -6.274748|   -8.329924|    0.824246|    0.012001|
|        5369|   -6.280372|   -8.336545|    0.824246|    0.012001|
|        5370|   -6.286173|   -8.343130|    0.824246|    0.012001|
|        5371|   -6.292113|   -8.349672|    0.824246|    0.012001|
|        5372|   -6.298150|   -8.356166|    0.824246|    0.012001|
|        5373|   -6.304238|   -8.362610|    0.824246|    0.012001|
|        5374|   -6.310331|   -8.369001|    0.824246|    0.012001|
|        5375|   -6.316380|   -8.375335|    0.824246|    0.012001|
|        5376|   -6.322334|   -8.381614|    0.824246|    0.012001|
|        5377|   -6.328145|   -8.387837|    0.824246|    0.012001|
|        5378|   -6.333765|   -8.394006|    0.824246|    0.012001|
|        5379|   -6.339148|   -8.400123|    0.824246|    0.012001|
|        5380|   -6.344255|   -8.406194|    0.824246|    0.012000|
|        5381|   -6.349049|   -8.412222|    0.824246|    0.012000|
|        5382|   -6.353500|   -8.418214|    0.824246|    0.012000|
|        5383|   -6.357586|   -8.424176|    0.824246|    0.012000|
|        5384|   -6.361292|   -8.430114|    0.824246|    0.012000|
|        5385|   -6.364609|   -8.436035|    0.824246|    0.012000|
|        5386|   -6.367537|   -8.441945|    0.824246|    0.012000|
|        5387|   -6.370082|   -8.447850|    0.824246|    0.012000|
|        5388|   -6.372257|   -8.453755|    0.824247|    0.012000|
|        5389|   -6.374080|   -8.459663|    0.824247|    0.012000|
|        5390|   -6.375572|   -8.465577|    0.824247|    0.012000|
|        5391|   -6.376760|   -8.471495|    0.824247|    0.012000|
|        5392|   -6.377669|   -8.477416|    0.824247|    0.011999|
|        5393|   -6.378327|   -8.483336|    0.824247|    0.011999|
|        5394|   -6.378763|   -8.489247|    0.824247|    0.011999|
|        5395|   -6.379003|   -8.495140|    0.824247|    0.011999|
|        5396|   -6.379072|   -8.501003|    0.824247|    0.011999|
|        5397|   -6.378993|   -8.506822|    0.824247|    0.011999|
|        5398|   -6.378786|   -8.512580|    0.824247|    0.011999|
|        5399|   -6.378469|   -8.518260|    0.824248|    0.011999|
|        5400|   -6.378057|   -8.523843|    0.824248|    0.011999|
|        5401|   -6.377563|   -8.529309|    0.824248|    0.011999|
|        5402|   -6.376996|   -8.534637|    0.824248|    0.011998|
|        5403|   -6.376366|   -8.539809|    0.824248|    0.011998|
|        5404|   -6.375678|   -8.544807|    0.824248|    0.011998|
|        5405|   -6.374937|   -8.549613|    0.824248|    0.011998|
|        5406|   -6.374148|   -8.554214|    0.824249|    0.011998|
|        5407|   -6.373312|   -8.558598|    0.824249|    0.011998|
|        5408|   -6.372432|   -8.562757|    0.824249|    0.011998|
|        5409|   -6.371511|   -8.566687|    0.824249|    0.011998|
|        5410|   -6.370550|   -8.570386|    0.824249|    0.011998|
|        5411|   -6.369552|   -8.573855|    0.824249|    0.011998|
|        5412|   -6.368519|   -8.577099|    0.824250|    0.011998|
|        5413|   -6.367454|   -8.580123|    0.824250|    0.011997|
|        5414|   -6.366361|   -8.582932|    0.824250|    0.011997|
|        5415|   -6.365245|   -8.585537|    0.824250|    0.011997|
|        5416|   -6.364108|   -8.587953|    0.824250|    0.011997|
|        5417|   -6.362958|   -8.590191|    0.824250|    0.011997|
|        5418|   -6.361800|   -8.592265|    0.824250|    0.011997|
|        5419|   -6.360641|   -8.594186|    0.824250|    0.011997|
|        5420|   -6.359488|   -8.595963|    0.824251|    0.011997|
|        5421|   -6.358351|   -8.597606|    0.824251|    0.011997|
|        5422|   -6.357237|   -8.599123|    0.824251|    0.011997|
|        5423|   -6.356158|   -8.600518|    0.824251|    0.011997|
|        5424|   -6.355123|   -8.601795|    0.824251|    0.011997|
|        5425|   -6.354144|   -8.602958|    0.824251|    0.011997|
|        5426|   -6.353233|   -8.604009|    0.824251|    0.011997|
|        5427|   -6.352404|   -8.604949|    0.824251|    0.011997|
|        5428|   -6.351669|   -8.605780|    0.824251|    0.011997|
|        5429|   -6.351044|   -8.606503|    0.824252|    0.011997|
|        5430|   -6.350542|   -8.607120|    0.824252|    0.011997|
|        5431|   -6.350180|   -8.607634|    0.824252|    0.011997|
|        5432|   -6.349972|   -8.608050|    0.824252|    0.011997|
|        5433|   -6.349935|   -8.608373|    0.824252|    0.011997|
|        5434|   -6.350083|   -8.608610|    0.824252|    0.011997|
|        5435|   -6.350431|   -8.608771|    0.824252|    0.011997|
|        5436|   -6.350996|   -8.608865|    0.824252|    0.011997|
|        5437|   -6.351790|   -8.608904|    0.824252|    0.011997|
|        5438|   -6.352826|   -8.608900|    0.824252|    0.011997|
|        5439|   -6.354117|   -8.608869|    0.824252|    0.011997|
|        5440|   -6.355674|   -8.608822|    0.824252|    0.011997|
|        5441|   -6.357504|   -8.608776|    0.824252|    0.011997|
|        5442|   -6.359616|   -8.608745|    0.824252|    0.011997|
|        5443|   -6.362014|   -8.608743|    0.824252|    0.011997|
|        5444|   -6.364700|   -8.608785|    0.824252|    0.011997|
|        5445|   -6.367674|   -8.608885|    0.824252|    0.011997|
|        5446|   -6.370934|   -8.609052|    0.824252|    0.011997|
|        5447|   -6.374475|   -8.609294|    0.824252|    0.011997|
|        5448|   -6.378286|   -8.609620|    0.824252|    0.011997|
|        5449|   -6.382356|   -8.610035|    0.824252|    0.011997|
|        5450|   -6.386669|   -8.610545|    0.824252|    0.011997|
|        5451|   -6.391206|   -8.611153|    0.824252|    0.011997|
|        5452|   -6.395945|   -8.611862|    0.824252|    0.011998|
|        5453|   -6.400858|   -8.612673|    0.824252|    0.011998|
|        5454|   -6.405916|   -8.613586|    0.824252|    0.011998|
|        5455|   -6.411085|   -8.614600|    0.824252|    0.011998|
|        5456|   -6.416328|   -8.615711|    0.824252|    0.011998|
|        5457|   -6.421605|   -8.616917|    0.824252|    0.011998|
|        5458|   -6.426874|   -8.618212|    0.824252|    0.011998|
|        5459|   -6.432091|   -8.619592|    0.824252|    0.011998|
|        5460|   -6.437210|   -8.621051|    0.824252|    0.011998|
|        5461|   -6.442184|   -8.622584|    0.824252|    0.011998|
|        5462|   -6.446968|   -8.624184|    0.824252|    0.011998|
|        5463|   -6.451517|   -8.625846|    0.824252|    0.011998|
|        5464|   -6.455790|   -8.627565|    0.824252|    0.011999|
|        5465|   -6.459747|   -8.629335|    0.824252|    0.011999|
|        5466|   -6.463355|   -8.631151|    0.824252|    0.011999|
|        5467|   -6.466585|   -8.633011|    0.824252|    0.011999|
|        5468|   -6.469415|   -8.634909|    0.824252|    0.011999|
|        5469|   -6.471830|   -8.636843|    0.824251|    0.011999|
|        5470|   -6.473821|   -8.638811|    0.824251|    0.011999|
|        5471|   -6.475390|   -8.640810|    0.824251|    0.011999|
|        5472|   -6.476542|   -8.642837|    0.824251|    0.011999|
|        5473|   -6.477291|   -8.644892|    0.824251|    0.011999|
|        5474|   -6.477658|   -8.646972|    0.824251|    0.011999|
|        5475|   -6.477669|   -8.649077|    0.824251|    0.011999|
|        5476|   -6.477355|   -8.651204|    0.824251|    0.011999|
|        5477|   -6.476749|   -8.653352|    0.824251|    0.011999|
|        5478|   -6.475889|   -8.655520|    0.824250|    0.011999|
|        5479|   -6.474814|   -8.657706|    0.824250|    0.012000|
|        5480|   -6.473563|   -8.659909|    0.824250|    0.012000|
|        5481|   -6.472176|   -8.662126|    0.824250|    0.012000|
|        5482|   -6.470692|   -8.664356|    0.824250|    0.012000|
|        5483|   -6.469148|   -8.666595|    0.824250|    0.012000|
|        5484|   -6.467579|   -8.668842|    0.824250|    0.012000|
|        5485|   -6.466020|   -8.671097|    0.824249|    0.012000|
|        5486|   -6.464501|   -8.673360|    0.824249|    0.012000|
|        5487|   -6.463051|   -8.675629|    0.824249|    0.012000|
|        5488|   -6.461694|   -8.677904|    0.824249|    0.012000|
|        5489|   -6.460454|   -8.680187|    0.824249|    0.012000|
|        5490|   -6.459350|   -8.682477|    0.824249|    0.012000|
|        5491|   -6.458400|   -8.684777|    0.824249|    0.012000|
|        5492|   -6.457620|   -8.687087|    0.824248|    0.012000|
|        5493|   -6.457020|   -8.689409|    0.824248|    0.012000|
|        5494|   -6.456611|   -8.691748|    0.824248|    0.012000|
|        5495|   -6.456402|   -8.694106|    0.824248|    0.012000|
|        5496|   -6.456399|   -8.696487|    0.824248|    0.012000|
|        5497|   -6.456605|   -8.698896|    0.824248|    0.012000|
|        5498|   -6.457024|   -8.701338|    0.824248|    0.012000|
|        5499|   -6.457658|   -8.703816|    0.824248|    0.011985|
+-----------------------------------------------------------------------+
|Fixed CL Mode (Finite Difference)       |Value                         |
+-----------------------------------------------------------------------+
|Delta CL / Delta AoA                    |0.247415                      |
|Delta CD / Delta CL                     |0.020136                      |
|Delta CMz / Delta CL                    |0.0117764                     |
+-----------------------------------------------------------------------+
Writing Flow Meta-Data file: flow.meta

----------------------------- Solver Exit -------------------------------

Maximum number of iterations reached (ITER = 5500) before convergence.
+-----------------------------------------------------------------------+
|      Convergence Field     |     Value    |   Criterion  |  Converged |
+-----------------------------------------------------------------------+
|                    rms[Rho]|      -6.45766|         < -12|          No|
+-----------------------------------------------------------------------+
-------------------------------------------------------------------------

--------------------------- Finalizing Solver ---------------------------
Deleted CNumerics container.
Deleted CIntegration container.
Deleted CSolver container.
Deleted CIteration container.
Deleted CInterface container.
Deleted CGeometry container.
Deleted CFreeFormDefBox class.
Deleted CSurfaceMovement class.
Deleted CVolumetricMovement class.
Deleted CConfig container.
Deleted nInst container.
Deleted COutput class.
-------------------------------------------------------------------------

------------------------- Exit Success (SU2_CFD) ------------------------


-------------------------------------------------------------------------
|    ___ _   _ ___                                                      |
|   / __| | | |_  )   Release 8.0.0 "Harrier"                           |
|   \__ \ |_| |/ /                                                      |
|   |___/\___//___|   Suite (Solution Exporting Code)                   |
|                                                                       |
-------------------------------------------------------------------------
| SU2 Project Website: https://su2code.github.io                        |
|                                                                       |
| The SU2 Project is maintained by the SU2 Foundation                   |
| (http://su2foundation.org)                                            |
-------------------------------------------------------------------------
| Copyright 2012-2023, SU2 Contributors                                 |
|                                                                       |
| SU2 is free software; you can redistribute it and/or                  |
| modify it under the terms of the GNU Lesser General Public            |
| License as published by the Free Software Foundation; either          |
| version 2.1 of the License, or (at your option) any later version.    |
|                                                                       |
| SU2 is distributed in the hope that it will be useful,                |
| but WITHOUT ANY WARRANTY; without even the implied warranty of        |
| MERCHANTABILITY or FITNESS FOR A PARTICULAR PURPOSE. See the GNU      |
| Lesser General Public License for more details.                       |
|                                                                       |
| You should have received a copy of the GNU Lesser General Public      |
| License along with SU2. If not, see <http://www.gnu.org/licenses/>.   |
-------------------------------------------------------------------------

----------------- Physical Case Definition ( Zone 0 ) -------------------
Input mesh file name: mesh_RAE2822_turb_deform.su2

-------------------- Output Information ( Zone 0 ) ----------------------
The tabular file format is CSV (.csv).
Flow variables file name: flow.

------------- Config File Boundary Information ( Zone 0 ) ---------------
+-----------------------------------------------------------------------+
|                        Marker Type|                        Marker Name|
+-----------------------------------------------------------------------+
|                          Far-field|                           FARFIELD|
+-----------------------------------------------------------------------+
|                     Heat flux wall|                            AIRFOIL|
+-----------------------------------------------------------------------+
Two dimensional problem.
13937 grid points before partitioning.
22842 volume elements before partitioning.
2 surface markers.
192 boundary elements in index 0 (Marker = AIRFOIL).
40 boundary elements in index 1 (Marker = FARFIELD).
Executing the partitioning functions.
Building the graph adjacency structure.
Calling ParMETIS... graph partitioning complete (831 edge cuts).
Distributing ParMETIS coloring.
Rebalancing vertices.
Rebalancing volume element connectivity.
Rebalancing markers and surface elements.
14875 vertices including ghost points. 
23674 interior elements including halo cells. 
18780 triangles.
4894 quadrilaterals.
Establishing MPI communication patterns.
Identify vertices.
Storing a mapping from global to local point index.

------------------------- Solution Postprocessing -----------------------
Reading and storing the solution from restart_flow.
Volume output fields: COORDINATES, SOLUTION
  Info: Ignoring the following screen output fields:
  RMS_DENSITY, RMS_NU_TILDE, LIFT, DRAG
Screen output fields: INNER_ITER
  Info: Ignoring the following history output groups:
  RMS_RES, AERO_COEFF
History output group(s): ITER
Warning: No (valid) fields chosen for convergence monitoring. Convergence monitoring inactive.
Warning: No (valid) fields chosen for time convergence monitoring. Time convergence monitoring inactive.
|Paraview                           |flow.vtu                           |
|Paraview surface                   |surface_flow.vtu                   |
|CSV file                           |surface_flow.csv                   |

------------------------- Finalize Solver -------------------------
Deleted CGeometry container.
Deleted CSolver class.
Deleted CConfig container.
Deleted COutput class.

Completed in 0.017556 seconds on 6 cores.

------------------------- Exit Success (SU2_SOL) ------------------------

