
-------------------------------------------------------------------------
|    ___ _   _ ___                                                      |
|   / __| | | |_  )   Release 8.0.0 "Harrier"                           |
|   \__ \ |_| |/ /                                                      |
|   |___/\___//___|   Suite (Computational Fluid Dynamics Code)         |
|                                                                       |
-------------------------------------------------------------------------
| SU2 Project Website: https://su2code.github.io                        |
|                                                                       |
| The SU2 Project is maintained by the SU2 Foundation                   |
| (http://su2foundation.org)                                            |
-------------------------------------------------------------------------
| Copyright 2012-2023, SU2 Contributors                                 |
|                                                                       |
| SU2 is free software; you can redistribute it and/or                  |
| modify it under the terms of the GNU Lesser General Public            |
| License as published by the Free Software Foundation; either          |
| version 2.1 of the License, or (at your option) any later version.    |
|                                                                       |
| SU2 is distributed in the hope that it will be useful,                |
| but WITHOUT ANY WARRANTY; without even the implied warranty of        |
| MERCHANTABILITY or FITNESS FOR A PARTICULAR PURPOSE. See the GNU      |
| Lesser General Public License for more details.                       |
|                                                                       |
| You should have received a copy of the GNU Lesser General Public      |
| License along with SU2. If not, see <http://www.gnu.org/licenses/>.   |
-------------------------------------------------------------------------

Parsing config file for zone 0

----------------- Physical Case Definition ( Zone 0 ) -------------------
Compressible RANS equations.
Turbulence model: Menter's k-omega SST-2003m with no production modification.
Hybrid RANS/LES: No Hybrid RANS/LES
Mach number: 0.729.
Angle of attack (AoA): 2 deg, and angle of sideslip (AoS): 0 deg.
Reynolds number: 6.5e+06. Reference length 1.
Reading and writing binary SU2 native restart files.
Read flow solution from: restart_flow.dat.
Dimensional simulation.
The reference area is 1 m^2.
The semi-span will be computed using the max y(3D) value.
The reference length is 1 m.
Surface(s) where the force coefficients are evaluated and 
their reference origin for moment computation: 
   - Airfoil (0.25, 0, 0).
   - Flap (0.25, 0, 0).
   - Slat (0.25, 0, 0) m.
Surface(s) plotted in the output file: Airfoil, Flap, Slat.
Input mesh file name: Mesh.su2

--------------- Space Numerical Integration ( Zone 0 ) ------------------
Roe (with entropy fix = 0.001) solver for the flow inviscid terms.
Standard Roe without low-dissipation function.
Second order integration in space, with slope limiter.
Venkatakrishnan slope-limiting method, with constant: 0.03.
The reference element size is: 1. 
Scalar upwind solver for the turbulence model.
First order integration in space.
Average of gradients with correction (viscous flow terms).
Average of gradients with correction (viscous turbulence terms).
Gradient for upwind reconstruction: inverse-distance weighted Least-Squares.
Gradient for viscous and source terms: inverse-distance weighted Least-Squares.

--------------- Time Numerical Integration  ( Zone 0 ) ------------------
Local time stepping (steady state simulation).
Euler implicit method for the flow equations.
FGMRES is used for solving the linear system.
Using a ILU(0) preconditioning.
Convergence criteria of the linear solver: 1e-06.
Max number of linear iterations: 10.
CFL adaptation. Factor down: 0.5, factor up: 1.1,
                lower limit: 1, upper limit: 1000,
                acceptable linear residual: 0.001.
Courant-Friedrichs-Lewy number:        2
Euler implicit time integration for the turbulence model.

------------------ Convergence Criteria  ( Zone 0 ) ---------------------
Maximum number of solver subiterations: 500.
Begin convergence monitoring at iteration 10.
Residual minimum value: 1e-14.
Cauchy series min. value: 1e-06.
Number of Cauchy elements: 100.
Begin windowed time average at iteration 0.

-------------------- Output Information ( Zone 0 ) ----------------------
File writing frequency: 
+------------------------------------+
|                     File| Frequency|
+------------------------------------+
|                  RESTART|       500|
|                 PARAVIEW|       500|
|         SURFACE_PARAVIEW|       500|
+------------------------------------+
Writing the convergence history file every 1 inner iterations.
Writing the screen convergence history every 1 inner iterations.
The tabular file format is CSV (.csv).
Convergence history file name: historySecond.
Forces breakdown file name: forces_breakdown.dat.
Surface file name: surface_flow.
Volume file name: flow.
Restart file name: restart_flow.dat.

------------- Config File Boundary Information ( Zone 0 ) ---------------
+-----------------------------------------------------------------------+
|                        Marker Type|                        Marker Name|
+-----------------------------------------------------------------------+
|                          Far-field|                           Farfield|
+-----------------------------------------------------------------------+
|                     Heat flux wall|                            Airfoil|
|                                   |                               Flap|
|                                   |                               Slat|
+-----------------------------------------------------------------------+

-------------------- Output Preprocessing ( Zone 0 ) --------------------

WARNING: SURFACE_PRESSURE_DROP can only be computed for at least 2 surfaces (outlet, inlet, ...)

Screen output fields: INNER_ITER, WALL_TIME, RMS_DENSITY, LIFT, DRAG, MIN_CFL, MAX_CFL, AVG_CFL
  Info: Ignoring the following history output groups:
  RESIDUALS, CFL
History output group(s): INNER_ITER, LIFT, DRAG
Convergence field(s): LIFT
Warning: No (valid) fields chosen for time convergence monitoring. Time convergence monitoring inactive.
  Info: Ignoring the following volume output fields/groups:
  RESIDUALS
Volume output fields: SOLUTION, PRIMITIVE, GRADIENTS, HESSIANS, EIGENVALUES, COORDINATES

------------------- Geometry Preprocessing ( Zone 0 ) -------------------
Two dimensional problem.
108957 grid points before partitioning.
112156 volume elements before partitioning.
4 surface markers.
861 boundary elements in index 0 (Marker = Airfoil).
158 boundary elements in index 1 (Marker = Farfield).
388 boundary elements in index 2 (Marker = Flap).
308 boundary elements in index 3 (Marker = Slat).
Executing the partitioning functions.
Building the graph adjacency structure.
Calling ParMETIS... graph partitioning complete (1071 edge cuts).
Distributing ParMETIS coloring.
Rebalancing vertices.
Rebalancing volume element connectivity.
Rebalancing markers and surface elements.
111066 vertices including ghost points. 
113228 interior elements including halo cells. 
8156 triangles.
105072 quadrilaterals.
Establishing MPI communication patterns.
Setting point connectivity.
Renumbering points (Reverse Cuthill McKee Ordering).
Recomputing point connectivity.
Setting element connectivity.
Checking the numerical grid orientation.
All volume elements are correctly orientend.
All surface elements are correctly orientend.
Identifying edges and vertices.
Setting the control volume structure.
Area of the computational grid: 31407.9.
Searching for the closest normal neighbors to the surfaces.
Storing a mapping from global to local point index.
Compute the surface curvature.
Max K: 19652.1. Mean K: 82.5156. Standard deviation K: 1030.45.
Checking for periodicity.
Computing mesh quality statistics for the dual control volumes.
+--------------------------------------------------------------+
|           Mesh Quality Metric|        Minimum|        Maximum|
+--------------------------------------------------------------+
|    Orthogonality Angle (deg.)|        54.9775|             90|
|     CV Face Area Aspect Ratio|        1.00248|        1527.24|
|           CV Sub-Volume Ratio|        1.00001|        20.1009|
+--------------------------------------------------------------+
Finding max control volume width.
Communicating number of neighbors.
Wetted area = 2.56909 m.
Area projection in the x-plane = 0.364712 m, y-plane = 1.14806 m.
Max. coordinate in the x-direction = 1.06769 m, y-direction = 0.0602555 m.
Min. coordinate in the x-direction = -0.0559969 m, y-direction = -0.147724 m.
Computing wall distances.

-------------------- Solver Preprocessing ( Zone 0 ) --------------------
Viscous flow: Computing pressure using the ideal gas law
based on the free-stream temperature and a density computed
from the Reynolds number.
Force coefficients computed using free-stream values.

-- Models:
+------------------------------------------------------------------------------+
|          Viscosity Model|        Conductivity Model|              Fluid Model|
+------------------------------------------------------------------------------+
|               SUTHERLAND|          CONSTANT_PRANDTL|             STANDARD_AIR|
+------------------------------------------------------------------------------+
-- Fluid properties:
+------------------------------------------------------------------------------+
|                  Name|    Dim. value|    Ref. value|      Unit|Non-dim. value|
+------------------------------------------------------------------------------+
|        Ref. Viscosity|     1.716e-05|             1|   N.s/m^2|     1.716e-05|
|      Sutherland Temp.|        273.15|             1|         K|        273.15|
|     Sutherland Const.|         110.4|             1|         K|         110.4|
+------------------------------------------------------------------------------+
|        Prandtl (Lam.)|             -|             -|         -|          0.72|
|       Prandtl (Turb.)|             -|             -|         -|           0.9|
+------------------------------------------------------------------------------+
|          Gas Constant|       287.058|             1|  N.m/kg.K|       287.058|
|      Spec. Heat Ratio|             -|             -|         -|           1.4|
+------------------------------------------------------------------------------+
-- Initial and free-stream conditions:
+------------------------------------------------------------------------------+
|                  Name|    Dim. value|    Ref. value|      Unit|Non-dim. value|
+------------------------------------------------------------------------------+
|       Static Pressure|       38779.2|             1|        Pa|       38779.2|
|               Density|      0.468824|             1|    kg/m^3|      0.468824|
|           Temperature|        288.15|             1|         K|        288.15|
|          Total Energy|        237791|             1|   m^2/s^2|        237791|
|            Velocity-X|       247.925|             1|       m/s|       247.925|
|            Velocity-Y|       8.65775|             1|       m/s|       8.65775|
|    Velocity Magnitude|       248.077|             1|       m/s|       248.077|
+------------------------------------------------------------------------------+
|             Viscosity|    1.7893e-05|             1|   N.s/m^2|    1.7893e-05|
|          Conductivity|             -|             1|   W/m^2.K|             -|
|     Turb. Kin. Energy|       230.782|             1|   m^2/s^2|       230.782|
|     Spec. Dissipation|        604687|             1|       1/s|        604687|
+------------------------------------------------------------------------------+
|           Mach Number|             -|             -|         -|         0.729|
|       Reynolds Number|             -|             -|         -|       6.5e+06|
+------------------------------------------------------------------------------+
Initialize Jacobian structure (Navier-Stokes). MG level: 0.
Initialize Jacobian structure (SST model).

------------------- Numerics Preprocessing ( Zone 0 ) -------------------

----------------- Integration Preprocessing ( Zone 0 ) ------------------

------------------- Iteration Preprocessing ( Zone 0 ) ------------------
Euler/Navier-Stokes/RANS fluid iteration.

------------------------------ Begin Solver -----------------------------

Simulation Run using the Single-zone Driver
WARNING: SU2 was not compiled for an AVX-capable architecture. Performance could be better,
         see https://su2code.github.io/docs_v7/Build-SU2-Linux-MacOS/#compiler-optimizations
+-------------------------------------------------------------------------------------------------------+
|  Inner_Iter|   Time(sec)|    rms[Rho]|          CL|          CD|     Min CFL|     Max CFL|     Avg CFL|
+-------------------------------------------------------------------------------------------------------+
|           0|  1.8790e-01|   -3.457388|    1.785822|    0.246575|  2.2000e+00|  2.2000e+00|  2.2000e+00|
|           1|  2.1049e-01|   -3.466295|    1.785820|    0.246571|  2.4200e+00|  2.4200e+00|  2.4200e+00|
|           2|  2.0545e-01|   -3.476058|    1.785818|    0.246568|  2.6620e+00|  2.6620e+00|  2.6620e+00|
|           3|  2.0312e-01|   -3.487460|    1.785815|    0.246565|  2.9282e+00|  2.9282e+00|  2.9282e+00|
|           4|  2.0378e-01|   -3.501765|    1.785813|    0.246562|  3.2210e+00|  3.2210e+00|  3.2210e+00|
|           5|  2.0905e-01|   -3.517761|    1.785811|    0.246560|  3.5431e+00|  3.5431e+00|  3.5431e+00|
|           6|  2.6264e-01|   -3.534699|    1.785808|    0.246558|  3.8974e+00|  3.8974e+00|  3.8974e+00|
|           7|  2.7743e-01|   -3.553207|    1.785806|    0.246555|  4.2872e+00|  4.2872e+00|  4.2872e+00|
|           8|  2.7056e-01|   -3.571535|    1.785802|    0.246552|  4.7159e+00|  4.7159e+00|  4.7159e+00|
|           9|  2.6523e-01|   -3.587569|    1.785798|    0.246550|  5.1875e+00|  5.1875e+00|  5.1875e+00|
|          10|  2.6122e-01|   -3.601076|    1.785792|    0.246547|  5.7062e+00|  5.7062e+00|  5.7062e+00|
|          11|  2.5789e-01|   -3.612779|    1.785784|    0.246544|  6.2769e+00|  6.2769e+00|  6.2769e+00|
|          12|  2.7497e-01|   -3.624102|    1.785773|    0.246541|  6.9045e+00|  6.9045e+00|  6.9045e+00|
|          13|  2.9752e-01|   -3.634383|    1.785757|    0.246538|  7.5950e+00|  7.5950e+00|  7.5950e+00|
|          14|  2.9280e-01|   -3.650327|    1.785737|    0.246534|  8.3545e+00|  8.3545e+00|  8.3545e+00|
|          15|  2.8931e-01|   -3.668577|    1.785710|    0.246528|  9.1899e+00|  9.1899e+00|  9.1899e+00|
|          16|  2.8618e-01|   -3.689963|    1.785678|    0.246518|  1.0109e+01|  1.0109e+01|  1.0109e+01|
|          17|  2.8343e-01|   -3.705410|    1.785639|    0.246503|  1.1120e+01|  1.1120e+01|  1.1120e+01|
|          18|  2.9379e-01|   -3.721303|    1.785593|    0.246484|  1.2232e+01|  1.2232e+01|  1.2232e+01|
|          19|  3.1036e-01|   -3.740435|    1.785539|    0.246465|  1.3455e+01|  1.3455e+01|  1.3455e+01|
|          20|  3.0672e-01|   -3.761885|    1.785475|    0.246450|  1.4800e+01|  1.4800e+01|  1.4800e+01|
|          21|  3.0386e-01|   -3.779338|    1.785400|    0.246443|  1.6281e+01|  1.6281e+01|  1.6281e+01|
|          22|  3.0130e-01|   -3.790250|    1.785313|    0.246445|  1.7909e+01|  1.7909e+01|  1.7909e+01|
|          23|  2.9894e-01|   -3.802475|    1.785215|    0.246455|  1.9699e+01|  1.9699e+01|  1.9699e+01|
|          24|  3.1099e-01|   -3.828515|    1.785110|    0.246468|  2.1669e+01|  2.1669e+01|  2.1669e+01|
|          25|  3.0838e-01|   -3.858367|    1.784996|    0.246476|  2.3836e+01|  2.3836e+01|  2.3836e+01|
|          26|  3.0615e-01|   -3.885441|    1.784872|    0.246472|  2.6220e+01|  2.6220e+01|  2.6220e+01|
|          27|  3.1258e-01|   -3.903939|    1.784732|    0.246451|  2.8842e+01|  2.8842e+01|  2.8842e+01|
|          28|  3.1350e-01|   -3.916889|    1.784570|    0.246410|  3.1726e+01|  3.1726e+01|  3.1726e+01|
|          29|  3.1150e-01|   -3.915749|    1.784392|    0.246348|  3.4899e+01|  3.4899e+01|  3.4899e+01|
|          30|  3.0960e-01|   -3.927172|    1.784206|    0.246269|  3.4899e+01|  3.4899e+01|  3.4899e+01|
|          31|  3.1715e-01|   -3.929360|    1.784041|    0.246189|  3.8389e+01|  3.8389e+01|  3.8389e+01|
|          32|  3.1501e-01|   -3.930260|    1.783900|    0.246113|  3.8389e+01|  3.8389e+01|  3.8389e+01|
|          33|  3.1318e-01|   -3.962117|    1.783799|    0.246060|  4.2228e+01|  4.2228e+01|  4.2228e+01|
|          34|  3.1145e-01|   -3.982801|    1.783733|    0.246036|  2.1114e+01|  2.1114e+01|  2.1114e+01|
|          35|  3.0973e-01|   -4.003749|    1.783707|    0.246033|  2.3225e+01|  2.3225e+01|  2.3225e+01|
|          36|  3.1674e-01|   -4.057583|    1.783692|    0.246039|  2.5548e+01|  2.5548e+01|  2.5548e+01|
|          37|  3.2275e-01|   -4.070223|    1.783685|    0.246058|  2.8102e+01|  2.8102e+01|  2.8102e+01|
|          38|  3.2085e-01|   -4.060797|    1.783687|    0.246088|  3.0913e+01|  3.0913e+01|  3.0913e+01|
|          39|  3.1918e-01|   -4.063857|    1.783692|    0.246126|  3.4004e+01|  3.4004e+01|  3.4004e+01|
|          40|  3.1757e-01|   -4.052918|    1.783698|    0.246169|  3.7404e+01|  3.7404e+01|  3.7404e+01|
|          41|  3.1690e-01|   -4.059966|    1.783699|    0.246212|  4.1145e+01|  4.1145e+01|  4.1145e+01|
|          42|  3.2139e-01|   -4.070454|    1.783689|    0.246252|  4.5259e+01|  4.5259e+01|  4.5259e+01|
|          43|  3.1977e-01|   -4.069117|    1.783659|    0.246286|  4.5259e+01|  4.5259e+01|  4.5259e+01|
|          44|  3.1830e-01|   -4.074779|    1.783612|    0.246313|  4.5259e+01|  4.5259e+01|  4.5259e+01|
|          45|  3.2331e-01|   -4.095807|    1.783544|    0.246335|  4.5259e+01|  4.5259e+01|  4.5259e+01|
|          46|  3.2170e-01|   -4.087549|    1.783462|    0.246352|  4.5259e+01|  4.5259e+01|  4.5259e+01|
|          47|  3.2028e-01|   -4.096189|    1.783366|    0.246364|  4.9785e+01|  4.9785e+01|  4.9785e+01|
|          48|  3.1997e-01|   -4.111941|    1.783251|    0.246373|  2.4893e+01|  2.4893e+01|  2.4893e+01|
|          49|  3.2327e-01|   -4.118605|    1.783192|    0.246376|  2.7382e+01|  2.7382e+01|  2.7382e+01|
|          50|  3.2177e-01|   -4.158729|    1.783128|    0.246378|  3.0120e+01|  3.0120e+01|  3.0120e+01|
|          51|  3.2047e-01|   -4.184643|    1.783056|    0.246380|  3.3132e+01|  3.3132e+01|  3.3132e+01|
|          52|  3.1920e-01|   -4.187445|    1.782980|    0.246380|  3.6445e+01|  3.6445e+01|  3.6445e+01|
|          53|  3.1955e-01|   -4.194230|    1.782899|    0.246380|  4.0090e+01|  4.0090e+01|  4.0090e+01|
|          54|  3.2226e-01|   -4.167981|    1.782816|    0.246382|  4.4099e+01|  4.4099e+01|  4.4099e+01|
|          55|  3.2101e-01|   -4.169362|    1.782729|    0.246385|  4.8509e+01|  4.8509e+01|  4.8509e+01|
|          56|  3.2049e-01|   -4.141699|    1.782635|    0.246394|  5.3359e+01|  5.3359e+01|  5.3359e+01|
|          57|  3.2468e-01|   -4.138713|    1.782534|    0.246405|  2.6680e+01|  2.6680e+01|  2.6680e+01|
|          58|  3.2326e-01|   -4.112863|    1.782483|    0.246412|  2.9348e+01|  2.9348e+01|  2.9348e+01|
|          59|  3.2203e-01|   -4.178746|    1.782424|    0.246420|  3.2282e+01|  3.2282e+01|  3.2282e+01|
|          60|  3.2132e-01|   -4.189859|    1.782359|    0.246429|  3.5511e+01|  3.5511e+01|  3.5511e+01|
|          61|  3.2439e-01|   -4.149911|    1.782287|    0.246437|  3.9062e+01|  3.9062e+01|  3.9062e+01|
|          62|  3.2323e-01|   -4.149854|    1.782204|    0.246445|  4.2968e+01|  4.2968e+01|  4.2968e+01|
|          63|  3.2214e-01|   -4.159698|    1.782111|    0.246449|  4.7265e+01|  4.7265e+01|  4.7265e+01|
|          64|  3.2110e-01|   -4.098109|    1.782005|    0.246448|  5.1991e+01|  5.1991e+01|  5.1991e+01|
|          65|  3.2169e-01|   -4.081467|    1.781890|    0.246440|  5.1991e+01|  5.1991e+01|  5.1991e+01|
|          66|  3.2295e-01|   -4.024687|    1.781775|    0.246424|  2.5996e+01|  2.5996e+01|  2.5996e+01|
|          67|  3.2180e-01|   -4.019633|    1.781715|    0.246416|  2.8595e+01|  2.8595e+01|  2.8595e+01|
|          68|  3.2070e-01|   -4.033874|    1.781651|    0.246405|  3.1455e+01|  3.1455e+01|  3.1455e+01|
|          69|  3.2358e-01|   -4.078934|    1.781582|    0.246391|  3.4600e+01|  3.4600e+01|  3.4600e+01|
|          70|  3.2355e-01|   -4.068062|    1.781506|    0.246376|  3.8060e+01|  3.8060e+01|  3.8060e+01|
|          71|  3.2258e-01|   -4.065368|    1.781423|    0.246360|  4.1866e+01|  4.1866e+01|  4.1866e+01|
|          72|  3.2165e-01|   -4.056399|    1.781330|    0.246343|  4.6053e+01|  4.6053e+01|  4.6053e+01|
|          73|  3.2291e-01|   -4.028841|    1.781228|    0.246328|  5.0658e+01|  5.0658e+01|  5.0658e+01|
|          74|  3.2374e-01|   -3.996776|    1.781114|    0.246317|  2.5329e+01|  2.5329e+01|  2.5329e+01|
|          75|  3.2271e-01|   -3.980327|    1.781056|    0.246312|  2.7862e+01|  2.7862e+01|  2.7862e+01|
|          76|  3.2177e-01|   -4.022397|    1.780991|    0.246309|  3.0648e+01|  3.0648e+01|  3.0648e+01|
|          77|  3.2093e-01|   -4.037152|    1.780918|    0.246307|  3.3713e+01|  3.3713e+01|  3.3713e+01|
|          78|  3.2201e-01|   -4.062097|    1.780835|    0.246308|  3.7084e+01|  3.7084e+01|  3.7084e+01|
|          79|  3.2341e-01|   -4.020378|    1.780740|    0.246311|  4.0793e+01|  4.0793e+01|  4.0793e+01|
|          80|  3.2254e-01|   -4.009756|    1.780632|    0.246316|  4.4872e+01|  4.4872e+01|  4.4872e+01|
|          81|  3.2172e-01|   -4.024681|    1.780506|    0.246324|  4.9359e+01|  4.9359e+01|  4.9359e+01|
|          82|  3.2092e-01|   -3.997857|    1.780362|    0.246331|  4.9359e+01|  4.9359e+01|  4.9359e+01|
|          83|  3.2328e-01|   -3.932279|    1.780213|    0.246336|  4.9359e+01|  4.9359e+01|  4.9359e+01|
|          84|  3.2243e-01|   -3.889190|    1.780058|    0.246338|  4.9359e+01|  4.9359e+01|  4.9359e+01|
|          85|  3.2165e-01|   -3.883072|    1.779900|    0.246334|  4.9359e+01|  4.9359e+01|  4.9359e+01|
|          86|  3.2088e-01|   -3.866831|    1.779743|    0.246324|  4.9359e+01|  4.9359e+01|  4.9359e+01|
|          87|  3.2014e-01|   -3.843902|    1.779583|    0.246309|  5.4295e+01|  5.4295e+01|  5.4295e+01|
|          88|  3.2273e-01|   -3.799581|    1.779409|    0.246284|  2.7148e+01|  2.7148e+01|  2.7148e+01|
|          89|  3.2186e-01|   -3.773779|    1.779322|    0.246270|  2.9862e+01|  2.9862e+01|  2.9862e+01|
|          90|  3.2107e-01|   -3.767642|    1.779228|    0.246253|  3.2849e+01|  3.2849e+01|  3.2849e+01|
|          91|  3.2036e-01|   -3.795384|    1.779123|    0.246231|  3.6133e+01|  3.6133e+01|  3.6133e+01|
|          92|  3.2242e-01|   -3.771884|    1.779010|    0.246206|  3.9747e+01|  3.9747e+01|  3.9747e+01|
|          93|  3.2173e-01|   -3.737864|    1.778884|    0.246176|  4.3721e+01|  4.3721e+01|  4.3721e+01|
|          94|  3.2103e-01|   -3.717279|    1.778749|    0.246142|  4.8094e+01|  4.8094e+01|  4.8094e+01|
|          95|  3.2034e-01|   -3.680800|    1.778598|    0.246104|  5.2903e+01|  5.2903e+01|  5.2903e+01|
|          96|  3.1967e-01|   -3.668725|    1.778433|    0.246063|  2.6451e+01|  2.6451e+01|  2.6451e+01|
|          97|  3.2106e-01|   -3.613676|    1.778351|    0.246044|  2.9097e+01|  2.9097e+01|  2.9097e+01|
|          98|  3.2111e-01|   -3.637443|    1.778259|    0.246023|  3.2006e+01|  3.2006e+01|  3.2006e+01|
|          99|  3.2044e-01|   -3.644674|    1.778157|    0.246002|  3.5207e+01|  3.5207e+01|  3.5207e+01|
|         100|  3.1979e-01|   -3.645809|    1.778047|    0.245980|  3.8728e+01|  3.8728e+01|  3.8728e+01|
|         101|  3.2043e-01|   -3.616676|    1.777922|    0.245960|  4.2600e+01|  4.2600e+01|  4.2600e+01|
|         102|  3.2126e-01|   -3.597647|    1.777788|    0.245940|  4.6860e+01|  4.6860e+01|  4.6860e+01|
|         103|  3.2062e-01|   -3.558392|    1.777640|    0.245923|  5.1546e+01|  5.1546e+01|  5.1546e+01|
|         104|  3.2000e-01|   -3.527852|    1.777477|    0.245910|  5.6701e+01|  5.6701e+01|  5.6701e+01|
|         105|  3.1939e-01|   -3.497404|    1.777301|    0.245900|  2.8351e+01|  2.8351e+01|  2.8351e+01|
|         106|  3.2043e-01|   -3.467403|    1.777217|    0.245895|  3.1186e+01|  3.1186e+01|  3.1186e+01|
|         107|  3.2020e-01|   -3.482983|    1.777119|    0.245891|  3.4304e+01|  3.4304e+01|  3.4304e+01|
|         108|  3.1961e-01|   -3.479654|    1.777017|    0.245888|  3.7735e+01|  3.7735e+01|  3.7735e+01|
|         109|  3.1903e-01|   -3.472372|    1.776907|    0.245885|  4.1508e+01|  4.1508e+01|  4.1508e+01|
|         110|  3.1897e-01|   -3.447482|    1.776787|    0.245882|  4.5659e+01|  4.5659e+01|  4.5659e+01|
|         111|  3.2022e-01|   -3.421957|    1.776658|    0.245878|  5.0225e+01|  5.0225e+01|  5.0225e+01|
|         112|  3.1964e-01|   -3.388827|    1.776524|    0.245871|  5.5247e+01|  5.5247e+01|  5.5247e+01|
|         113|  3.1908e-01|   -3.358779|    1.776378|    0.245861|  2.7624e+01|  2.7624e+01|  2.7624e+01|
|         114|  3.1849e-01|   -3.320592|    1.776307|    0.245856|  1.3812e+01|  1.3812e+01|  1.3812e+01|
|         115|  3.1866e-01|   -3.340219|    1.776272|    0.245853|  6.9059e+00|  6.9059e+00|  6.9059e+00|
|         116|  3.1913e-01|   -3.433732|    1.776255|    0.245852|  3.4529e+00|  3.4529e+00|  3.4529e+00|
|         117|  3.1802e-01|   -3.700703|    1.776246|    0.245851|  3.7982e+00|  3.7982e+00|  3.7982e+00|
|         118|  3.1691e-01|   -3.987539|    1.776237|    0.245850|  4.1781e+00|  4.1781e+00|  4.1781e+00|
|         119|  3.1592e-01|   -4.035377|    1.776226|    0.245849|  4.5959e+00|  4.5959e+00|  4.5959e+00|
|         120|  3.1498e-01|   -4.054508|    1.776214|    0.245848|  5.0555e+00|  5.0555e+00|  5.0555e+00|
|         121|  3.1405e-01|   -4.089896|    1.776202|    0.245847|  5.5610e+00|  5.5610e+00|  5.5610e+00|
|         122|  3.1323e-01|   -4.114376|    1.776187|    0.245846|  6.1171e+00|  6.1171e+00|  6.1171e+00|
|         123|  3.1242e-01|   -4.133924|    1.776172|    0.245844|  6.7288e+00|  6.7288e+00|  6.7288e+00|
|         124|  3.1327e-01|   -4.168153|    1.776155|    0.245842|  7.4017e+00|  7.4017e+00|  7.4017e+00|
|         125|  3.1281e-01|   -4.132083|    1.776136|    0.245841|  8.1419e+00|  8.1419e+00|  8.1419e+00|
|         126|  3.1213e-01|   -4.198548|    1.776116|    0.245838|  8.9561e+00|  8.9561e+00|  8.9561e+00|
|         127|  3.1157e-01|   -4.222944|    1.776093|    0.245836|  9.8517e+00|  9.8517e+00|  9.8517e+00|
|         128|  3.1102e-01|   -4.212401|    1.776069|    0.245833|  1.0837e+01|  1.0837e+01|  1.0837e+01|
|         129|  3.1048e-01|   -4.214215|    1.776042|    0.245830|  1.1921e+01|  1.1921e+01|  1.1921e+01|
|         130|  3.0997e-01|   -4.169073|    1.776012|    0.245826|  1.3113e+01|  1.3113e+01|  1.3113e+01|
|         131|  3.0948e-01|   -4.129636|    1.775980|    0.245822|  1.4424e+01|  1.4424e+01|  1.4424e+01|
|         132|  3.1028e-01|   -4.200345|    1.775944|    0.245817|  1.5866e+01|  1.5866e+01|  1.5866e+01|
|         133|  3.0977e-01|   -4.213222|    1.775906|    0.245811|  1.7453e+01|  1.7453e+01|  1.7453e+01|
|         134|  3.0931e-01|   -4.163841|    1.775863|    0.245804|  1.9198e+01|  1.9198e+01|  1.9198e+01|
|         135|  3.0886e-01|   -4.116162|    1.775816|    0.245796|  2.1118e+01|  2.1118e+01|  2.1118e+01|
|         136|  3.0845e-01|   -4.160393|    1.775764|    0.245788|  2.3230e+01|  2.3230e+01|  2.3230e+01|
|         137|  3.0805e-01|   -4.142583|    1.775707|    0.245777|  2.5553e+01|  2.5553e+01|  2.5553e+01|
|         138|  3.0768e-01|   -4.103613|    1.775643|    0.245765|  2.8108e+01|  2.8108e+01|  2.8108e+01|
|         139|  3.0841e-01|   -4.063401|    1.775571|    0.245752|  1.4054e+01|  1.4054e+01|  1.4054e+01|
|         140|  3.0815e-01|   -4.019259|    1.775535|    0.245745|  7.0270e+00|  7.0270e+00|  7.0270e+00|
|         141|  3.0756e-01|   -4.067625|    1.775516|    0.245741|  3.5135e+00|  3.5135e+00|  3.5135e+00|
|         142|  3.0680e-01|   -4.136030|    1.775507|    0.245739|  3.8648e+00|  3.8648e+00|  3.8648e+00|
|         143|  3.0605e-01|   -4.186689|    1.775497|    0.245737|  4.2513e+00|  4.2513e+00|  4.2513e+00|
|         144|  3.0531e-01|   -4.188811|    1.775486|    0.245735|  4.6765e+00|  4.6765e+00|  4.6765e+00|
|         145|  3.0469e-01|   -4.205581|    1.775473|    0.245733|  5.1441e+00|  5.1441e+00|  5.1441e+00|
|         146|  3.0407e-01|   -4.197182|    1.775459|    0.245730|  5.6585e+00|  5.6585e+00|  5.6585e+00|
|         147|  3.0346e-01|   -4.193220|    1.775444|    0.245727|  6.2244e+00|  6.2244e+00|  6.2244e+00|
|         148|  3.0408e-01|   -4.232846|    1.775427|    0.245724|  6.8468e+00|  6.8468e+00|  6.8468e+00|
|         149|  3.0356e-01|   -4.228180|    1.775409|    0.245720|  7.5315e+00|  7.5315e+00|  7.5315e+00|
|         150|  3.0314e-01|   -4.217219|    1.775388|    0.245716|  8.2846e+00|  8.2846e+00|  8.2846e+00|
|         151|  3.0274e-01|   -4.243019|    1.775365|    0.245712|  9.1131e+00|  9.1131e+00|  9.1131e+00|
|         152|  3.0233e-01|   -4.249902|    1.775340|    0.245707|  1.0024e+01|  1.0024e+01|  1.0024e+01|
|         153|  3.0193e-01|   -4.225447|    1.775311|    0.245701|  1.1027e+01|  1.1027e+01|  1.1027e+01|
|         154|  3.0157e-01|   -4.216189|    1.775280|    0.245694|  1.2130e+01|  1.2130e+01|  1.2130e+01|
|         155|  3.0121e-01|   -4.200150|    1.775245|    0.245687|  1.3342e+01|  1.3342e+01|  1.3342e+01|
|         156|  3.0109e-01|   -4.143341|    1.775206|    0.245679|  6.6712e+00|  6.6712e+00|  6.6712e+00|
|         157|  3.0190e-01|   -4.103863|    1.775186|    0.245675|  3.3356e+00|  3.3356e+00|  3.3356e+00|
|         158|  3.0117e-01|   -4.193925|    1.775176|    0.245673|  3.6692e+00|  3.6692e+00|  3.6692e+00|
|         159|  3.0053e-01|   -4.211256|    1.775165|    0.245671|  4.0361e+00|  4.0361e+00|  4.0361e+00|
|         160|  2.9990e-01|   -4.232170|    1.775153|    0.245668|  4.4397e+00|  4.4397e+00|  4.4397e+00|
|         161|  2.9928e-01|   -4.251334|    1.775139|    0.245666|  4.8837e+00|  4.8837e+00|  4.8837e+00|
|         162|  2.9870e-01|   -4.183557|    1.775124|    0.245663|  2.4418e+00|  2.4418e+00|  2.4418e+00|
|         163|  2.9829e-01|   -4.177643|    1.775117|    0.245661|  1.2209e+00|  1.2209e+00|  1.2209e+00|
|         164|  2.9865e-01|   -4.287545|    1.775113|    0.245660|  1.3430e+00|  1.3430e+00|  1.3430e+00|
|         165|  2.9788e-01|   -4.276925|    1.775109|    0.245659|  1.4773e+00|  1.4773e+00|  1.4773e+00|
|         166|  2.9713e-01|   -4.300334|    1.775104|    0.245659|  1.6250e+00|  1.6250e+00|  1.6250e+00|
|         167|  2.9639e-01|   -4.322059|    1.775099|    0.245657|  1.7875e+00|  1.7875e+00|  1.7875e+00|
|         168|  2.9569e-01|   -4.335980|    1.775094|    0.245656|  1.9663e+00|  1.9663e+00|  1.9663e+00|
|         169|  2.9506e-01|   -4.346562|    1.775088|    0.245655|  2.1629e+00|  2.1629e+00|  2.1629e+00|
|         170|  2.9444e-01|   -4.354061|    1.775081|    0.245654|  2.3792e+00|  2.3792e+00|  2.3792e+00|
|         171|  2.9383e-01|   -4.356799|    1.775074|    0.245652|  2.6172e+00|  2.6172e+00|  2.6172e+00|
|         172|  2.9322e-01|   -4.263314|    1.775066|    0.245650|  2.8789e+00|  2.8789e+00|  2.8789e+00|
|         173|  2.9262e-01|   -4.340131|    1.775057|    0.245649|  3.1668e+00|  3.1668e+00|  3.1668e+00|
|         174|  2.9209e-01|   -4.342873|    1.775047|    0.245647|  3.4834e+00|  3.4834e+00|  3.4834e+00|
|         175|  2.9260e-01|   -4.292981|    1.775036|    0.245644|  3.8318e+00|  3.8318e+00|  3.8318e+00|
|         176|  2.9263e-01|   -4.356985|    1.775024|    0.245642|  4.2149e+00|  4.2149e+00|  4.2149e+00|
|         177|  2.9217e-01|   -4.368353|    1.775011|    0.245639|  4.6364e+00|  4.6364e+00|  4.6364e+00|
|         178|  2.9173e-01|   -4.376299|    1.774996|    0.245636|  5.1001e+00|  5.1001e+00|  5.1001e+00|
|         179|  2.9130e-01|   -4.303560|    1.774979|    0.245633|  5.6101e+00|  5.6101e+00|  5.6101e+00|
|         180|  2.9088e-01|   -4.358894|    1.774961|    0.245629|  6.1711e+00|  6.1711e+00|  6.1711e+00|
|         181|  2.9053e-01|   -4.294257|    1.774941|    0.245625|  6.7882e+00|  6.7882e+00|  6.7882e+00|
|         182|  2.9096e-01|   -4.349426|    1.774919|    0.245620|  7.4670e+00|  7.4670e+00|  7.4670e+00|
|         183|  2.9112e-01|   -4.320987|    1.774894|    0.245615|  8.2137e+00|  8.2137e+00|  8.2137e+00|
|         184|  2.9085e-01|   -4.280756|    1.774867|    0.245609|  9.0351e+00|  9.0351e+00|  9.0351e+00|
|         185|  2.9058e-01|   -4.301634|    1.774837|    0.245603|  9.9386e+00|  9.9386e+00|  9.9386e+00|
|         186|  2.9032e-01|   -4.254046|    1.774803|    0.245596|  1.0932e+01|  1.0932e+01|  1.0932e+01|
|         187|  2.9006e-01|   -4.241087|    1.774765|    0.245588|  1.2026e+01|  1.2026e+01|  1.2026e+01|
|         188|  2.9112e-01|   -4.235984|    1.774723|    0.245580|  1.3228e+01|  1.3228e+01|  1.3228e+01|
|         189|  2.9086e-01|   -4.215948|    1.774677|    0.245571|  1.4551e+01|  1.4551e+01|  1.4551e+01|
|         190|  2.9063e-01|   -4.179619|    1.774626|    0.245561|  1.6006e+01|  1.6006e+01|  1.6006e+01|
|         191|  2.9039e-01|   -4.143031|    1.774569|    0.245550|  1.7607e+01|  1.7607e+01|  1.7607e+01|
|         192|  2.9018e-01|   -4.124770|    1.774506|    0.245539|  1.9368e+01|  1.9368e+01|  1.9368e+01|
|         193|  2.8998e-01|   -4.165104|    1.774437|    0.245526|  2.1304e+01|  2.1304e+01|  2.1304e+01|
|         194|  2.9067e-01|   -4.127234|    1.774360|    0.245514|  2.3435e+01|  2.3435e+01|  2.3435e+01|
|         195|  2.9098e-01|   -4.102612|    1.774276|    0.245501|  2.5778e+01|  2.5778e+01|  2.5778e+01|
|         196|  2.9081e-01|   -4.058539|    1.774182|    0.245488|  2.8356e+01|  2.8356e+01|  2.8356e+01|
|         197|  2.9065e-01|   -4.027598|    1.774079|    0.245475|  3.1192e+01|  3.1192e+01|  3.1192e+01|
|         198|  2.9049e-01|   -4.029877|    1.773967|    0.245462|  3.4311e+01|  3.4311e+01|  3.4311e+01|
|         199|  2.9033e-01|   -4.024948|    1.773843|    0.245449|  3.7742e+01|  3.7742e+01|  3.7742e+01|
|         200|  2.9115e-01|   -3.976094|    1.773709|    0.245435|  3.7742e+01|  3.7742e+01|  3.7742e+01|
|         201|  2.9151e-01|   -3.930612|    1.773576|    0.245422|  4.1516e+01|  4.1516e+01|  4.1516e+01|
|         202|  2.9135e-01|   -3.911001|    1.773435|    0.245408|  2.0758e+01|  2.0758e+01|  2.0758e+01|
|         203|  2.9115e-01|   -3.877073|    1.773365|    0.245402|  2.2834e+01|  2.2834e+01|  2.2834e+01|
|         204|  2.9094e-01|   -3.936494|    1.773288|    0.245395|  2.5117e+01|  2.5117e+01|  2.5117e+01|
|         205|  2.9076e-01|   -3.975970|    1.773208|    0.245388|  2.7629e+01|  2.7629e+01|  2.7629e+01|
|         206|  2.9076e-01|   -3.960437|    1.773121|    0.245380|  3.0392e+01|  3.0392e+01|  3.0392e+01|
|         207|  2.9187e-01|   -3.928052|    1.773030|    0.245372|  3.3431e+01|  3.3431e+01|  3.3431e+01|
|         208|  2.9171e-01|   -3.940035|    1.772933|    0.245364|  3.6774e+01|  3.6774e+01|  3.6774e+01|
|         209|  2.9155e-01|   -3.924128|    1.772832|    0.245356|  4.0452e+01|  4.0452e+01|  4.0452e+01|
|         210|  2.9139e-01|   -3.898160|    1.772726|    0.245347|  4.0452e+01|  4.0452e+01|  4.0452e+01|
|         211|  2.9123e-01|   -3.857875|    1.772626|    0.245339|  4.4497e+01|  4.4497e+01|  4.4497e+01|
|         212|  2.9137e-01|   -3.842775|    1.772518|    0.245329|  2.2248e+01|  2.2248e+01|  2.2248e+01|
|         213|  2.9194e-01|   -3.833555|    1.772466|    0.245324|  2.4473e+01|  2.4473e+01|  2.4473e+01|
|         214|  2.9175e-01|   -3.886494|    1.772410|    0.245318|  2.6921e+01|  2.6921e+01|  2.6921e+01|
|         215|  2.9157e-01|   -3.918572|    1.772349|    0.245312|  2.9613e+01|  2.9613e+01|  2.9613e+01|
|         216|  2.9141e-01|   -3.940579|    1.772282|    0.245304|  3.2574e+01|  3.2574e+01|  3.2574e+01|
|         217|  2.9126e-01|   -3.941675|    1.772210|    0.245295|  3.5831e+01|  3.5831e+01|  3.5831e+01|
|         218|  2.9226e-01|   -3.924395|    1.772131|    0.245284|  1.7916e+01|  1.7916e+01|  1.7916e+01|
|         219|  2.9202e-01|   -3.896100|    1.772091|    0.245278|  8.9578e+00|  8.9578e+00|  8.9578e+00|
|         220|  2.9178e-01|   -3.928343|    1.772071|    0.245275|  4.4789e+00|  4.4789e+00|  4.4789e+00|
|         221|  2.9137e-01|   -4.031501|    1.772061|    0.245273|  2.2395e+00|  2.2395e+00|  2.2395e+00|
|         222|  2.9086e-01|   -4.082158|    1.772057|    0.245273|  1.1197e+00|  1.1197e+00|  1.1197e+00|
|         223|  2.9029e-01|   -4.120666|    1.772054|    0.245272|  1.0000e+00|  1.0000e+00|  1.0000e+00|
|         224|  2.8972e-01|   -4.149381|    1.772052|    0.245272|  1.0000e+00|  1.0000e+00|  1.0000e+00|
|         225|  2.8917e-01|   -4.163770|    1.772050|    0.245272|  1.0000e+00|  1.0000e+00|  1.0000e+00|
|         226|  2.9008e-01|   -4.152161|    1.772048|    0.245271|  1.0000e+00|  1.0000e+00|  1.0000e+00|
|         227|  2.8959e-01|   -4.168822|    1.772045|    0.245271|  1.0000e+00|  1.0000e+00|  1.0000e+00|
|         228|  2.8907e-01|   -4.181433|    1.772043|    0.245271|  1.0000e+00|  1.0000e+00|  1.0000e+00|
|         229|  2.8855e-01|   -4.190886|    1.772041|    0.245270|  1.0000e+00|  1.0000e+00|  1.0000e+00|
|         230|  2.8809e-01|   -4.191557|    1.772039|    0.245270|  1.1000e+00|  1.1000e+00|  1.1000e+00|
|         231|  2.8774e-01|   -4.186748|    1.772036|    0.245270|  1.2100e+00|  1.2100e+00|  1.2100e+00|
|         232|  2.8733e-01|   -4.141570|    1.772033|    0.245269|  1.0000e+00|  1.0000e+00|  1.0000e+00|
|         233|  2.8681e-01|   -4.177069|    1.772031|    0.245269|  1.0000e+00|  1.0000e+00|  1.0000e+00|
|         234|  2.8750e-01|   -4.191223|    1.772029|    0.245269|  1.1000e+00|  1.1000e+00|  1.1000e+00|
|         235|  2.8713e-01|   -4.204255|    1.772026|    0.245268|  1.2100e+00|  1.2100e+00|  1.2100e+00|
|         236|  2.8667e-01|   -4.214750|    1.772024|    0.245268|  1.3310e+00|  1.3310e+00|  1.3310e+00|
|         237|  2.8622e-01|   -4.218452|    1.772021|    0.245267|  1.4641e+00|  1.4641e+00|  1.4641e+00|
|         238|  2.8577e-01|   -4.223818|    1.772017|    0.245267|  1.6105e+00|  1.6105e+00|  1.6105e+00|
|         239|  2.8533e-01|   -4.228303|    1.772014|    0.245266|  1.7716e+00|  1.7716e+00|  1.7716e+00|
|         240|  2.8489e-01|   -4.232984|    1.772010|    0.245266|  1.9487e+00|  1.9487e+00|  1.9487e+00|
|         241|  2.8508e-01|   -4.238899|    1.772006|    0.245265|  2.1436e+00|  2.1436e+00|  2.1436e+00|
|         242|  2.8517e-01|   -4.173295|    1.772001|    0.245264|  2.3579e+00|  2.3579e+00|  2.3579e+00|
|         243|  2.8477e-01|   -4.230980|    1.771996|    0.245263|  1.1790e+00|  1.1790e+00|  1.1790e+00|
|         244|  2.8432e-01|   -4.239428|    1.771993|    0.245263|  1.2969e+00|  1.2969e+00|  1.2969e+00|
|         245|  2.8387e-01|   -4.221921|    1.771990|    0.245262|  1.0000e+00|  1.0000e+00|  1.0000e+00|
|         246|  2.8338e-01|   -4.212802|    1.771988|    0.245262|  1.0000e+00|  1.0000e+00|  1.0000e+00|
|         247|  2.8291e-01|   -4.236709|    1.771986|    0.245262|  1.0000e+00|  1.0000e+00|  1.0000e+00|
|         248|  2.8243e-01|   -4.253745|    1.771984|    0.245261|  1.0000e+00|  1.0000e+00|  1.0000e+00|
|         249|  2.8196e-01|   -4.262016|    1.771982|    0.245261|  1.0000e+00|  1.0000e+00|  1.0000e+00|
|         250|  2.8148e-01|   -4.268602|    1.771980|    0.245261|  1.0000e+00|  1.0000e+00|  1.0000e+00|
|         251|  2.8102e-01|   -4.274376|    1.771977|    0.245260|  1.0000e+00|  1.0000e+00|  1.0000e+00|
|         252|  2.8056e-01|   -4.278964|    1.771975|    0.245260|  1.0000e+00|  1.0000e+00|  1.0000e+00|
|         253|  2.8039e-01|   -4.282597|    1.771973|    0.245260|  1.1000e+00|  1.1000e+00|  1.1000e+00|
|         254|  2.8076e-01|   -4.285667|    1.771970|    0.245259|  1.0000e+00|  1.0000e+00|  1.0000e+00|
|         255|  2.8029e-01|   -4.288661|    1.771968|    0.245259|  1.0000e+00|  1.0000e+00|  1.0000e+00|
|         256|  2.7984e-01|   -4.291505|    1.771966|    0.245259|  1.1000e+00|  1.1000e+00|  1.1000e+00|
|         257|  2.7943e-01|   -4.244542|    1.771964|    0.245258|  1.2100e+00|  1.2100e+00|  1.2100e+00|
|         258|  2.7903e-01|   -4.256524|    1.771961|    0.245258|  1.3310e+00|  1.3310e+00|  1.3310e+00|
|         259|  2.7863e-01|   -4.272777|    1.771958|    0.245257|  1.4641e+00|  1.4641e+00|  1.4641e+00|
|         260|  2.7824e-01|   -4.279836|    1.771955|    0.245257|  1.6105e+00|  1.6105e+00|  1.6105e+00|
|         261|  2.7784e-01|   -4.279737|    1.771951|    0.245256|  1.0000e+00|  1.0000e+00|  1.0000e+00|
|         262|  2.7842e-01|   -4.196178|    1.771949|    0.245256|  1.0000e+00|  1.0000e+00|  1.0000e+00|
|         263|  2.7796e-01|   -4.251322|    1.771947|    0.245255|  1.1000e+00|  1.1000e+00|  1.1000e+00|
|         264|  2.7757e-01|   -4.269277|    1.771944|    0.245255|  1.2100e+00|  1.2100e+00|  1.2100e+00|
|         265|  2.7719e-01|   -4.280852|    1.771942|    0.245255|  1.0000e+00|  1.0000e+00|  1.0000e+00|
|         266|  2.7677e-01|   -4.287188|    1.771939|    0.245254|  1.0000e+00|  1.0000e+00|  1.0000e+00|
|         267|  2.7634e-01|   -4.292506|    1.771937|    0.245254|  1.0000e+00|  1.0000e+00|  1.0000e+00|
|         268|  2.7592e-01|   -4.295683|    1.771935|    0.245254|  1.0000e+00|  1.0000e+00|  1.0000e+00|
|         269|  2.7551e-01|   -4.297568|    1.771933|    0.245253|  1.0000e+00|  1.0000e+00|  1.0000e+00|
|         270|  2.7510e-01|   -4.298965|    1.771930|    0.245253|  1.0000e+00|  1.0000e+00|  1.0000e+00|
|         271|  2.7469e-01|   -4.300538|    1.771928|    0.245252|  1.0000e+00|  1.0000e+00|  1.0000e+00|
|         272|  2.7428e-01|   -4.302302|    1.771926|    0.245252|  1.1000e+00|  1.1000e+00|  1.1000e+00|
|         273|  2.7392e-01|   -4.301359|    1.771923|    0.245252|  1.0000e+00|  1.0000e+00|  1.0000e+00|
|         274|  2.7413e-01|   -4.230641|    1.771921|    0.245251|  1.0000e+00|  1.0000e+00|  1.0000e+00|
|         275|  2.7415e-01|   -4.269954|    1.771919|    0.245251|  1.0000e+00|  1.0000e+00|  1.0000e+00|
|         276|  2.7375e-01|   -4.282392|    1.771916|    0.245251|  1.0000e+00|  1.0000e+00|  1.0000e+00|
|         277|  2.7335e-01|   -4.288924|    1.771914|    0.245250|  1.0000e+00|  1.0000e+00|  1.0000e+00|
|         278|  2.7296e-01|   -4.290031|    1.771912|    0.245250|  1.0000e+00|  1.0000e+00|  1.0000e+00|
|         279|  2.7259e-01|   -4.288123|    1.771910|    0.245249|  1.0000e+00|  1.0000e+00|  1.0000e+00|
|         280|  2.7222e-01|   -4.208677|    1.771907|    0.245249|  1.0000e+00|  1.0000e+00|  1.0000e+00|
|         281|  2.7184e-01|   -4.260309|    1.771905|    0.245249|  1.0000e+00|  1.0000e+00|  1.0000e+00|
|         282|  2.7146e-01|   -4.280015|    1.771903|    0.245248|  1.0000e+00|  1.0000e+00|  1.0000e+00|
|         283|  2.7138e-01|   -4.292346|    1.771900|    0.245248|  1.0000e+00|  1.0000e+00|  1.0000e+00|
|         284|  2.7151e-01|   -4.299105|    1.771898|    0.245248|  1.1000e+00|  1.1000e+00|  1.1000e+00|
|         285|  2.7116e-01|   -4.304900|    1.771896|    0.245247|  1.2100e+00|  1.2100e+00|  1.2100e+00|
|         286|  2.7083e-01|   -4.308488|    1.771893|    0.245247|  1.3310e+00|  1.3310e+00|  1.3310e+00|
|         287|  2.7050e-01|   -4.310263|    1.771890|    0.245246|  1.4641e+00|  1.4641e+00|  1.4641e+00|
|         288|  2.7017e-01|   -4.311457|    1.771887|    0.245246|  1.6105e+00|  1.6105e+00|  1.6105e+00|
|         289|  2.6985e-01|   -4.312658|    1.771883|    0.245245|  1.7716e+00|  1.7716e+00|  1.7716e+00|
|         290|  2.6958e-01|   -4.301684|    1.771879|    0.245244|  1.9487e+00|  1.9487e+00|  1.9487e+00|
|         291|  2.6930e-01|   -4.253692|    1.771874|    0.245244|  2.1436e+00|  2.1436e+00|  2.1436e+00|
|         292|  2.6954e-01|   -4.289807|    1.771869|    0.245243|  2.3579e+00|  2.3579e+00|  2.3579e+00|
|         293|  2.6969e-01|   -4.296134|    1.771864|    0.245242|  2.5937e+00|  2.5937e+00|  2.5937e+00|
|         294|  2.6942e-01|   -4.203420|    1.771858|    0.245241|  2.8531e+00|  2.8531e+00|  2.8531e+00|
|         295|  2.6915e-01|   -4.286116|    1.771852|    0.245240|  3.1384e+00|  3.1384e+00|  3.1384e+00|
|         296|  2.6892e-01|   -4.295856|    1.771845|    0.245239|  3.4523e+00|  3.4523e+00|  3.4523e+00|
|         297|  2.6869e-01|   -4.303737|    1.771837|    0.245237|  3.7975e+00|  3.7975e+00|  3.7975e+00|
|         298|  2.6847e-01|   -4.306142|    1.771828|    0.245236|  4.1772e+00|  4.1772e+00|  4.1772e+00|
|         299|  2.6825e-01|   -4.307784|    1.771819|    0.245234|  4.5950e+00|  4.5950e+00|  4.5950e+00|
|         300|  2.6808e-01|   -4.214934|    1.771808|    0.245233|  5.0545e+00|  5.0545e+00|  5.0545e+00|
|         301|  2.6795e-01|   -4.232550|    1.771797|    0.245231|  5.5599e+00|  5.5599e+00|  5.5599e+00|
|         302|  2.6777e-01|   -4.292818|    1.771784|    0.245228|  6.1159e+00|  6.1159e+00|  6.1159e+00|
|         303|  2.6820e-01|   -4.299751|    1.771770|    0.245226|  6.7275e+00|  6.7275e+00|  6.7275e+00|
|         304|  2.6840e-01|   -4.298329|    1.771755|    0.245224|  7.4002e+00|  7.4002e+00|  7.4002e+00|
|         305|  2.6831e-01|   -4.292294|    1.771738|    0.245221|  8.1403e+00|  8.1403e+00|  8.1403e+00|
|         306|  2.6823e-01|   -4.237047|    1.771719|    0.245218|  8.9543e+00|  8.9543e+00|  8.9543e+00|
|         307|  2.6815e-01|   -4.216818|    1.771699|    0.245214|  9.8497e+00|  9.8497e+00|  9.8497e+00|
|         308|  2.6807e-01|   -4.252350|    1.771676|    0.245211|  1.0835e+01|  1.0835e+01|  1.0835e+01|
|         309|  2.6799e-01|   -4.229454|    1.771651|    0.245207|  1.1918e+01|  1.1918e+01|  1.1918e+01|
|         310|  2.6856e-01|   -4.205301|    1.771623|    0.245202|  1.3110e+01|  1.3110e+01|  1.3110e+01|
|         311|  2.6898e-01|   -4.166663|    1.771592|    0.245198|  1.4421e+01|  1.4421e+01|  1.4421e+01|
|         312|  2.6892e-01|   -4.151208|    1.771558|    0.245193|  1.5863e+01|  1.5863e+01|  1.5863e+01|
|         313|  2.6885e-01|   -4.157408|    1.771521|    0.245187|  1.7449e+01|  1.7449e+01|  1.7449e+01|
|         314|  2.6879e-01|   -4.142422|    1.771479|    0.245181|  1.9194e+01|  1.9194e+01|  1.9194e+01|
|         315|  2.6874e-01|   -4.118009|    1.771432|    0.245175|  2.1114e+01|  2.1114e+01|  2.1114e+01|
|         316|  2.6868e-01|   -4.087747|    1.771381|    0.245169|  2.3225e+01|  2.3225e+01|  2.3225e+01|
|         317|  2.6954e-01|   -4.037946|    1.771324|    0.245162|  1.1613e+01|  1.1613e+01|  1.1613e+01|
|         318|  2.6944e-01|   -3.999443|    1.771295|    0.245159|  5.8063e+00|  5.8063e+00|  5.8063e+00|
|         319|  2.6926e-01|   -4.030017|    1.771280|    0.245158|  2.9031e+00|  2.9031e+00|  2.9031e+00|
|         320|  2.6900e-01|   -4.127859|    1.771273|    0.245157|  3.1935e+00|  3.1935e+00|  3.1935e+00|
|         321|  2.6876e-01|   -4.177919|    1.771265|    0.245156|  3.5128e+00|  3.5128e+00|  3.5128e+00|
|         322|  2.6851e-01|   -4.190854|    1.771256|    0.245155|  3.8641e+00|  3.8641e+00|  3.8641e+00|
|         323|  2.6830e-01|   -4.150275|    1.771247|    0.245154|  1.9320e+00|  1.9320e+00|  1.9320e+00|
|         324|  2.6875e-01|   -4.193122|    1.771242|    0.245153|  1.0000e+00|  1.0000e+00|  1.0000e+00|
|         325|  2.6840e-01|   -4.214368|    1.771239|    0.245153|  1.0000e+00|  1.0000e+00|  1.0000e+00|
|         326|  2.6809e-01|   -4.242334|    1.771237|    0.245153|  1.1000e+00|  1.1000e+00|  1.1000e+00|
|         327|  2.6778e-01|   -4.215548|    1.771234|    0.245153|  1.0000e+00|  1.0000e+00|  1.0000e+00|
|         328|  2.6746e-01|   -4.248600|    1.771231|    0.245152|  1.0000e+00|  1.0000e+00|  1.0000e+00|
|         329|  2.6715e-01|   -4.273262|    1.771229|    0.245152|  1.0000e+00|  1.0000e+00|  1.0000e+00|
|         330|  2.6684e-01|   -4.287989|    1.771226|    0.245152|  1.0000e+00|  1.0000e+00|  1.0000e+00|
|         331|  2.6653e-01|   -4.294850|    1.771224|    0.245151|  1.0000e+00|  1.0000e+00|  1.0000e+00|
|         332|  2.6702e-01|   -4.297974|    1.771221|    0.245151|  1.1000e+00|  1.1000e+00|  1.1000e+00|
|         333|  2.6677e-01|   -4.299052|    1.771218|    0.245151|  1.2100e+00|  1.2100e+00|  1.2100e+00|
|         334|  2.6649e-01|   -4.298110|    1.771215|    0.245151|  1.3310e+00|  1.3310e+00|  1.3310e+00|
|         335|  2.6622e-01|   -4.295787|    1.771212|    0.245150|  1.0000e+00|  1.0000e+00|  1.0000e+00|
|         336|  2.6596e-01|   -4.292771|    1.771210|    0.245150|  1.0000e+00|  1.0000e+00|  1.0000e+00|
|         337|  2.6565e-01|   -4.218478|    1.771207|    0.245150|  1.0000e+00|  1.0000e+00|  1.0000e+00|
|         338|  2.6535e-01|   -4.252923|    1.771205|    0.245149|  1.0000e+00|  1.0000e+00|  1.0000e+00|
|         339|  2.6505e-01|   -4.264733|    1.771202|    0.245149|  1.0000e+00|  1.0000e+00|  1.0000e+00|
|         340|  2.6519e-01|   -4.268966|    1.771200|    0.245149|  1.0000e+00|  1.0000e+00|  1.0000e+00|
|         341|  2.6533e-01|   -4.267300|    1.771197|    0.245149|  1.0000e+00|  1.0000e+00|  1.0000e+00|
|         342|  2.6503e-01|   -4.267652|    1.771195|    0.245148|  1.1000e+00|  1.1000e+00|  1.1000e+00|
|         343|  2.6476e-01|   -4.257159|    1.771192|    0.245148|  1.0000e+00|  1.0000e+00|  1.0000e+00|
|         344|  2.6448e-01|   -4.206757|    1.771189|    0.245148|  1.0000e+00|  1.0000e+00|  1.0000e+00|
|         345|  2.6420e-01|   -4.243572|    1.771187|    0.245148|  1.0000e+00|  1.0000e+00|  1.0000e+00|
|         346|  2.6395e-01|   -4.260520|    1.771184|    0.245147|  1.0000e+00|  1.0000e+00|  1.0000e+00|
|         347|  2.6366e-01|   -4.270061|    1.771182|    0.245147|  1.0000e+00|  1.0000e+00|  1.0000e+00|
|         348|  2.6338e-01|   -4.282151|    1.771179|    0.245147|  1.0000e+00|  1.0000e+00|  1.0000e+00|
|         349|  2.6347e-01|   -4.291561|    1.771177|    0.245147|  1.0000e+00|  1.0000e+00|  1.0000e+00|
|         350|  2.6360e-01|   -4.294987|    1.771174|    0.245146|  1.0000e+00|  1.0000e+00|  1.0000e+00|
|         351|  2.6331e-01|   -4.299051|    1.771172|    0.245146|  1.0000e+00|  1.0000e+00|  1.0000e+00|
|         352|  2.6303e-01|   -4.302566|    1.771169|    0.245146|  1.0000e+00|  1.0000e+00|  1.0000e+00|
|         353|  2.6276e-01|   -4.306342|    1.771167|    0.245146|  1.0000e+00|  1.0000e+00|  1.0000e+00|
|         354|  2.6248e-01|   -4.307376|    1.771164|    0.245145|  1.0000e+00|  1.0000e+00|  1.0000e+00|
|         355|  2.6221e-01|   -4.226384|    1.771162|    0.245145|  1.0000e+00|  1.0000e+00|  1.0000e+00|
|         356|  2.6197e-01|   -4.279296|    1.771159|    0.245145|  1.0000e+00|  1.0000e+00|  1.0000e+00|
|         357|  2.6170e-01|   -4.297724|    1.771157|    0.245145|  1.0000e+00|  1.0000e+00|  1.0000e+00|
|         358|  2.6179e-01|   -4.305769|    1.771154|    0.245144|  1.0000e+00|  1.0000e+00|  1.0000e+00|
|         359|  2.6195e-01|   -4.308631|    1.771152|    0.245144|  1.0000e+00|  1.0000e+00|  1.0000e+00|
|         360|  2.6167e-01|   -4.312085|    1.771149|    0.245144|  1.0000e+00|  1.0000e+00|  1.0000e+00|
|         361|  2.6140e-01|   -4.312823|    1.771147|    0.245144|  1.0000e+00|  1.0000e+00|  1.0000e+00|
|         362|  2.6113e-01|   -4.221434|    1.771144|    0.245143|  1.0000e+00|  1.0000e+00|  1.0000e+00|
|         363|  2.6087e-01|   -4.272650|    1.771142|    0.245143|  1.0000e+00|  1.0000e+00|  1.0000e+00|
|         364|  2.6060e-01|   -4.295909|    1.771139|    0.245143|  1.0000e+00|  1.0000e+00|  1.0000e+00|
|         365|  2.6034e-01|   -4.310161|    1.771137|    0.245143|  1.0000e+00|  1.0000e+00|  1.0000e+00|
|         366|  2.6009e-01|   -4.324713|    1.771134|    0.245142|  1.0000e+00|  1.0000e+00|  1.0000e+00|
|         367|  2.5985e-01|   -4.333292|    1.771132|    0.245142|  1.0000e+00|  1.0000e+00|  1.0000e+00|
|         368|  2.5959e-01|   -4.336851|    1.771129|    0.245142|  1.0000e+00|  1.0000e+00|  1.0000e+00|
|         369|  2.5933e-01|   -4.339449|    1.771127|    0.245142|  1.0000e+00|  1.0000e+00|  1.0000e+00|
|         370|  2.5926e-01|   -4.341236|    1.771124|    0.245141|  1.0000e+00|  1.0000e+00|  1.0000e+00|
|         371|  2.5960e-01|   -4.343228|    1.771122|    0.245141|  1.0000e+00|  1.0000e+00|  1.0000e+00|
|         372|  2.5933e-01|   -4.271278|    1.771119|    0.245141|  1.0000e+00|  1.0000e+00|  1.0000e+00|
|         373|  2.5907e-01|   -4.290130|    1.771116|    0.245141|  1.0000e+00|  1.0000e+00|  1.0000e+00|
|         374|  2.5882e-01|   -4.318647|    1.771114|    0.245140|  1.1000e+00|  1.1000e+00|  1.1000e+00|
|         375|  2.5860e-01|   -4.329673|    1.771111|    0.245140|  1.0000e+00|  1.0000e+00|  1.0000e+00|
|         376|  2.5835e-01|   -4.331369|    1.771109|    0.245140|  1.0000e+00|  1.0000e+00|  1.0000e+00|
|         377|  2.5812e-01|   -4.332784|    1.771106|    0.245140|  1.0000e+00|  1.0000e+00|  1.0000e+00|
|         378|  2.5788e-01|   -4.334525|    1.771104|    0.245139|  1.0000e+00|  1.0000e+00|  1.0000e+00|
|         379|  2.5763e-01|   -4.300832|    1.771101|    0.245139|  1.0000e+00|  1.0000e+00|  1.0000e+00|
|         380|  2.5800e-01|   -4.257677|    1.771098|    0.245139|  1.0000e+00|  1.0000e+00|  1.0000e+00|
|         381|  2.5773e-01|   -4.288518|    1.771096|    0.245139|  1.0000e+00|  1.0000e+00|  1.0000e+00|
|         382|  2.5749e-01|   -4.312807|    1.771093|    0.245139|  1.0000e+00|  1.0000e+00|  1.0000e+00|
|         383|  2.5725e-01|   -4.329694|    1.771091|    0.245138|  1.0000e+00|  1.0000e+00|  1.0000e+00|
|         384|  2.5701e-01|   -4.340440|    1.771088|    0.245138|  1.0000e+00|  1.0000e+00|  1.0000e+00|
|         385|  2.5678e-01|   -4.343634|    1.771086|    0.245138|  1.0000e+00|  1.0000e+00|  1.0000e+00|
|         386|  2.5654e-01|   -4.345048|    1.771083|    0.245138|  1.0000e+00|  1.0000e+00|  1.0000e+00|
|         387|  2.5630e-01|   -4.345784|    1.771081|    0.245137|  1.0000e+00|  1.0000e+00|  1.0000e+00|
|         388|  2.5606e-01|   -4.346595|    1.771078|    0.245137|  1.0000e+00|  1.0000e+00|  1.0000e+00|
|         389|  2.5583e-01|   -4.304380|    1.771076|    0.245137|  1.0000e+00|  1.0000e+00|  1.0000e+00|
|         390|  2.5622e-01|   -4.277871|    1.771073|    0.245137|  1.0000e+00|  1.0000e+00|  1.0000e+00|
|         391|  2.5605e-01|   -4.316041|    1.771071|    0.245136|  1.0000e+00|  1.0000e+00|  1.0000e+00|
|         392|  2.5581e-01|   -4.329536|    1.771068|    0.245136|  1.0000e+00|  1.0000e+00|  1.0000e+00|
|         393|  2.5558e-01|   -4.332161|    1.771065|    0.245136|  1.0000e+00|  1.0000e+00|  1.0000e+00|
|         394|  2.5535e-01|   -4.332892|    1.771063|    0.245136|  1.1000e+00|  1.1000e+00|  1.1000e+00|
|         395|  2.5515e-01|   -4.334313|    1.771060|    0.245135|  1.0000e+00|  1.0000e+00|  1.0000e+00|
|         396|  2.5492e-01|   -4.333435|    1.771058|    0.245135|  1.0000e+00|  1.0000e+00|  1.0000e+00|
|         397|  2.5470e-01|   -4.233712|    1.771055|    0.245135|  1.0000e+00|  1.0000e+00|  1.0000e+00|
|         398|  2.5448e-01|   -4.271447|    1.771052|    0.245135|  1.0000e+00|  1.0000e+00|  1.0000e+00|
|         399|  2.5425e-01|   -4.300579|    1.771050|    0.245134|  1.0000e+00|  1.0000e+00|  1.0000e+00|
|         400|  2.5403e-01|   -4.321493|    1.771047|    0.245134|  1.1000e+00|  1.1000e+00|  1.1000e+00|
|         401|  2.5383e-01|   -4.334011|    1.771045|    0.245134|  1.0000e+00|  1.0000e+00|  1.0000e+00|
|         402|  2.5361e-01|   -4.337596|    1.771042|    0.245134|  1.0000e+00|  1.0000e+00|  1.0000e+00|
|         403|  2.5414e-01|   -4.338765|    1.771039|    0.245134|  1.0000e+00|  1.0000e+00|  1.0000e+00|
|         404|  2.5391e-01|   -4.339207|    1.771037|    0.245133|  1.0000e+00|  1.0000e+00|  1.0000e+00|
|         405|  2.5369e-01|   -4.339813|    1.771034|    0.245133|  1.0000e+00|  1.0000e+00|  1.0000e+00|
|         406|  2.5348e-01|   -4.288109|    1.771032|    0.245133|  1.0000e+00|  1.0000e+00|  1.0000e+00|
|         407|  2.5326e-01|   -4.275755|    1.771029|    0.245133|  1.0000e+00|  1.0000e+00|  1.0000e+00|
|         408|  2.5305e-01|   -4.312166|    1.771027|    0.245132|  1.0000e+00|  1.0000e+00|  1.0000e+00|
|         409|  2.5283e-01|   -4.323564|    1.771024|    0.245132|  1.0000e+00|  1.0000e+00|  1.0000e+00|
|         410|  2.5261e-01|   -4.325133|    1.771021|    0.245132|  1.1000e+00|  1.1000e+00|  1.1000e+00|
|         411|  2.5243e-01|   -4.325411|    1.771019|    0.245132|  1.2100e+00|  1.2100e+00|  1.2100e+00|
|         412|  2.5224e-01|   -4.326445|    1.771016|    0.245131|  1.3310e+00|  1.3310e+00|  1.3310e+00|
|         413|  2.5266e-01|   -4.324134|    1.771012|    0.245131|  1.4641e+00|  1.4641e+00|  1.4641e+00|
|         414|  2.5280e-01|   -4.225399|    1.771008|    0.245131|  1.0000e+00|  1.0000e+00|  1.0000e+00|
|         415|  2.5258e-01|   -4.269998|    1.771006|    0.245130|  1.1000e+00|  1.1000e+00|  1.1000e+00|
|         416|  2.5240e-01|   -4.302579|    1.771003|    0.245130|  1.2100e+00|  1.2100e+00|  1.2100e+00|
|         417|  2.5222e-01|   -4.320327|    1.771000|    0.245130|  1.3310e+00|  1.3310e+00|  1.3310e+00|
|         418|  2.5204e-01|   -4.324903|    1.770996|    0.245130|  1.4641e+00|  1.4641e+00|  1.4641e+00|
|         419|  2.5185e-01|   -4.326381|    1.770993|    0.245129|  1.6105e+00|  1.6105e+00|  1.6105e+00|
|         420|  2.5167e-01|   -4.320918|    1.770989|    0.245129|  1.7716e+00|  1.7716e+00|  1.7716e+00|
|         421|  2.5149e-01|   -4.254697|    1.770984|    0.245128|  1.9487e+00|  1.9487e+00|  1.9487e+00|
|         422|  2.5172e-01|   -4.258437|    1.770979|    0.245128|  1.0000e+00|  1.0000e+00|  1.0000e+00|
|         423|  2.5190e-01|   -4.304394|    1.770976|    0.245128|  1.1000e+00|  1.1000e+00|  1.1000e+00|
|         424|  2.5171e-01|   -4.308779|    1.770974|    0.245128|  1.2100e+00|  1.2100e+00|  1.2100e+00|
|         425|  2.5153e-01|   -4.309449|    1.770971|    0.245127|  1.3310e+00|  1.3310e+00|  1.3310e+00|
|         426|  2.5135e-01|   -4.311031|    1.770967|    0.245127|  1.0000e+00|  1.0000e+00|  1.0000e+00|
|         427|  2.5118e-01|   -4.284384|    1.770965|    0.245127|  1.0000e+00|  1.0000e+00|  1.0000e+00|
|         428|  2.5097e-01|   -4.224843|    1.770962|    0.245126|  1.0000e+00|  1.0000e+00|  1.0000e+00|
|         429|  2.5077e-01|   -4.258792|    1.770959|    0.245126|  1.0000e+00|  1.0000e+00|  1.0000e+00|
|         430|  2.5060e-01|   -4.289100|    1.770957|    0.245126|  1.0000e+00|  1.0000e+00|  1.0000e+00|
|         431|  2.5042e-01|   -4.306849|    1.770954|    0.245126|  1.0000e+00|  1.0000e+00|  1.0000e+00|
|         432|  2.5087e-01|   -4.313982|    1.770952|    0.245126|  1.0000e+00|  1.0000e+00|  1.0000e+00|
|         433|  2.5101e-01|   -4.316122|    1.770949|    0.245125|  1.0000e+00|  1.0000e+00|  1.0000e+00|
|         434|  2.5083e-01|   -4.317199|    1.770947|    0.245125|  1.0000e+00|  1.0000e+00|  1.0000e+00|
|         435|  2.5066e-01|   -4.317834|    1.770944|    0.245125|  1.0000e+00|  1.0000e+00|  1.0000e+00|
|         436|  2.5048e-01|   -4.314273|    1.770941|    0.245125|  1.0000e+00|  1.0000e+00|  1.0000e+00|
|         437|  2.5029e-01|   -4.223721|    1.770939|    0.245124|  1.0000e+00|  1.0000e+00|  1.0000e+00|
|         438|  2.5009e-01|   -4.283220|    1.770936|    0.245124|  1.0000e+00|  1.0000e+00|  1.0000e+00|
|         439|  2.4992e-01|   -4.299001|    1.770934|    0.245124|  1.0000e+00|  1.0000e+00|  1.0000e+00|
|         440|  2.4975e-01|   -4.305461|    1.770931|    0.245124|  1.0000e+00|  1.0000e+00|  1.0000e+00|
|         441|  2.4999e-01|   -4.306598|    1.770929|    0.245123|  1.0000e+00|  1.0000e+00|  1.0000e+00|
|         442|  2.5023e-01|   -4.308016|    1.770926|    0.245123|  1.0000e+00|  1.0000e+00|  1.0000e+00|
|         443|  2.5005e-01|   -4.310068|    1.770923|    0.245123|  1.0000e+00|  1.0000e+00|  1.0000e+00|
|         444|  2.4988e-01|   -4.307631|    1.770921|    0.245123|  1.1000e+00|  1.1000e+00|  1.1000e+00|
|         445|  2.4971e-01|   -4.211774|    1.770918|    0.245123|  1.0000e+00|  1.0000e+00|  1.0000e+00|
|         446|  2.4952e-01|   -4.249959|    1.770915|    0.245122|  1.0000e+00|  1.0000e+00|  1.0000e+00|
|         447|  2.4935e-01|   -4.283696|    1.770913|    0.245122|  1.0000e+00|  1.0000e+00|  1.0000e+00|
|         448|  2.4918e-01|   -4.304532|    1.770910|    0.245122|  1.0000e+00|  1.0000e+00|  1.0000e+00|
|         449|  2.4901e-01|   -4.311855|    1.770908|    0.245122|  1.0000e+00|  1.0000e+00|  1.0000e+00|
|         450|  2.4920e-01|   -4.313514|    1.770905|    0.245121|  1.0000e+00|  1.0000e+00|  1.0000e+00|
|         451|  2.4943e-01|   -4.316148|    1.770903|    0.245121|  1.0000e+00|  1.0000e+00|  1.0000e+00|
|         452|  2.4925e-01|   -4.314859|    1.770900|    0.245121|  1.0000e+00|  1.0000e+00|  1.0000e+00|
|         453|  2.4909e-01|   -4.276162|    1.770897|    0.245121|  1.0000e+00|  1.0000e+00|  1.0000e+00|
|         454|  2.4890e-01|   -4.257856|    1.770895|    0.245120|  1.0000e+00|  1.0000e+00|  1.0000e+00|
|         455|  2.4874e-01|   -4.296103|    1.770892|    0.245120|  1.0000e+00|  1.0000e+00|  1.0000e+00|
|         456|  2.4858e-01|   -4.309777|    1.770890|    0.245120|  1.1000e+00|  1.1000e+00|  1.1000e+00|
|         457|  2.4858e-01|   -4.312594|    1.770887|    0.245120|  1.0000e+00|  1.0000e+00|  1.0000e+00|
|         458|  2.4894e-01|   -4.314447|    1.770884|    0.245120|  1.0000e+00|  1.0000e+00|  1.0000e+00|
|         459|  2.4876e-01|   -4.315143|    1.770882|    0.245119|  1.0000e+00|  1.0000e+00|  1.0000e+00|
|         460|  2.4860e-01|   -4.315809|    1.770879|    0.245119|  1.0000e+00|  1.0000e+00|  1.0000e+00|
|         461|  2.4844e-01|   -4.263973|    1.770876|    0.245119|  1.0000e+00|  1.0000e+00|  1.0000e+00|
|         462|  2.4826e-01|   -4.230238|    1.770874|    0.245119|  1.0000e+00|  1.0000e+00|  1.0000e+00|
|         463|  2.4807e-01|   -4.269586|    1.770871|    0.245118|  1.0000e+00|  1.0000e+00|  1.0000e+00|
|         464|  2.4791e-01|   -4.291110|    1.770869|    0.245118|  1.0000e+00|  1.0000e+00|  1.0000e+00|
|         465|  2.4775e-01|   -4.306090|    1.770866|    0.245118|  1.0000e+00|  1.0000e+00|  1.0000e+00|
|         466|  2.4760e-01|   -4.310276|    1.770864|    0.245118|  1.0000e+00|  1.0000e+00|  1.0000e+00|
|         467|  2.4744e-01|   -4.311975|    1.770861|    0.245117|  1.0000e+00|  1.0000e+00|  1.0000e+00|
|         468|  2.4788e-01|   -4.313101|    1.770858|    0.245117|  1.0000e+00|  1.0000e+00|  1.0000e+00|
|         469|  2.4771e-01|   -4.314584|    1.770856|    0.245117|  1.0000e+00|  1.0000e+00|  1.0000e+00|
|         470|  2.4753e-01|   -4.215015|    1.770853|    0.245117|  1.0000e+00|  1.0000e+00|  1.0000e+00|
|         471|  2.4735e-01|   -4.276831|    1.770851|    0.245117|  1.0000e+00|  1.0000e+00|  1.0000e+00|
|         472|  2.4720e-01|   -4.296174|    1.770848|    0.245116|  1.0000e+00|  1.0000e+00|  1.0000e+00|
|         473|  2.4704e-01|   -4.304681|    1.770846|    0.245116|  1.0000e+00|  1.0000e+00|  1.0000e+00|
|         474|  2.4689e-01|   -4.306767|    1.770843|    0.245116|  1.0000e+00|  1.0000e+00|  1.0000e+00|
|         475|  2.4674e-01|   -4.308484|    1.770840|    0.245116|  1.0000e+00|  1.0000e+00|  1.0000e+00|
|         476|  2.4658e-01|   -4.311085|    1.770838|    0.245115|  1.0000e+00|  1.0000e+00|  1.0000e+00|
|         477|  2.4678e-01|   -4.310274|    1.770835|    0.245115|  1.0000e+00|  1.0000e+00|  1.0000e+00|
|         478|  2.4688e-01|   -4.206256|    1.770833|    0.245115|  1.0000e+00|  1.0000e+00|  1.0000e+00|
|         479|  2.4670e-01|   -4.242475|    1.770830|    0.245115|  1.0000e+00|  1.0000e+00|  1.0000e+00|
|         480|  2.4653e-01|   -4.279067|    1.770828|    0.245114|  1.0000e+00|  1.0000e+00|  1.0000e+00|
|         481|  2.4638e-01|   -4.304389|    1.770825|    0.245114|  1.0000e+00|  1.0000e+00|  1.0000e+00|
|         482|  2.4624e-01|   -4.313908|    1.770822|    0.245114|  1.0000e+00|  1.0000e+00|  1.0000e+00|
|         483|  2.4609e-01|   -4.316369|    1.770820|    0.245114|  1.0000e+00|  1.0000e+00|  1.0000e+00|
|         484|  2.4594e-01|   -4.317972|    1.770817|    0.245114|  1.0000e+00|  1.0000e+00|  1.0000e+00|
|         485|  2.4580e-01|   -4.318938|    1.770815|    0.245113|  1.0000e+00|  1.0000e+00|  1.0000e+00|
|         486|  2.4563e-01|   -4.266723|    1.770812|    0.245113|  1.0000e+00|  1.0000e+00|  1.0000e+00|
|         487|  2.4546e-01|   -4.262017|    1.770810|    0.245113|  1.0000e+00|  1.0000e+00|  1.0000e+00|
|         488|  2.4530e-01|   -4.296745|    1.770807|    0.245113|  1.0000e+00|  1.0000e+00|  1.0000e+00|
|         489|  2.4542e-01|   -4.308712|    1.770804|    0.245112|  1.0000e+00|  1.0000e+00|  1.0000e+00|
|         490|  2.4552e-01|   -4.313264|    1.770802|    0.245112|  1.1000e+00|  1.1000e+00|  1.1000e+00|
|         491|  2.4537e-01|   -4.315699|    1.770799|    0.245112|  1.0000e+00|  1.0000e+00|  1.0000e+00|
|         492|  2.4521e-01|   -4.318929|    1.770797|    0.245112|  1.0000e+00|  1.0000e+00|  1.0000e+00|
|         493|  2.4505e-01|   -4.320229|    1.770794|    0.245111|  1.0000e+00|  1.0000e+00|  1.0000e+00|
|         494|  2.4488e-01|   -4.303541|    1.770791|    0.245111|  1.0000e+00|  1.0000e+00|  1.0000e+00|
|         495|  2.4472e-01|   -4.222817|    1.770789|    0.245111|  1.0000e+00|  1.0000e+00|  1.0000e+00|
|         496|  2.4456e-01|   -4.263140|    1.770786|    0.245111|  1.0000e+00|  1.0000e+00|  1.0000e+00|
|         497|  2.4439e-01|   -4.301152|    1.770784|    0.245111|  1.1000e+00|  1.1000e+00|  1.1000e+00|
|         498|  2.4428e-01|   -4.320791|    1.770781|    0.245110|  1.0000e+00|  1.0000e+00|  1.0000e+00|
|         499|  2.4456e-01|   -4.326016|    1.770778|    0.245110|  1.0000e+00|  1.0000e+00|  1.0000e+00|

----------------------------- Solver Exit -------------------------------

Maximum number of iterations reached (ITER = 500) before convergence.
+-----------------------------------------------------------------------+
|      Convergence Field     |     Value    |   Criterion  |  Converged |
+-----------------------------------------------------------------------+
|                  Cauchy[CL]|    1.5332e-06|       < 1e-06|          No|
+-----------------------------------------------------------------------+
-------------------------------------------------------------------------
+-----------------------------------------------------------------------+
|        File Writing Summary       |              Filename             |
+-----------------------------------------------------------------------+
|SU2 binary restart                 |restart_flow.dat                   |

Writing the forces breakdown file (forces_breakdown.dat).
|Paraview                           |flow.vtu                           |

Writing the forces breakdown file (forces_breakdown.dat).
|Paraview surface                   |surface_flow.vtu                   |

Writing the forces breakdown file (forces_breakdown.dat).
+-----------------------------------------------------------------------+

--------------------------- Finalizing Solver ---------------------------
Deleted CNumerics container.
Deleted CIntegration container.
Deleted CSolver container.
Deleted CIteration container.
Deleted CInterface container.
Deleted CGeometry container.
Deleted CFreeFormDefBox class.
Deleted CSurfaceMovement class.
Deleted CVolumetricMovement class.
Deleted CConfig container.
Deleted nInst container.
Deleted COutput class.
-------------------------------------------------------------------------

------------------------- Exit Success (SU2_CFD) ------------------------

