
-------------------------------------------------------------------------
|    ___ _   _ ___                                                      |
|   / __| | | |_  )   Release 8.0.0 "Harrier"                           |
|   \__ \ |_| |/ /                                                      |
|   |___/\___//___|   Suite (Computational Fluid Dynamics Code)         |
|                                                                       |
-------------------------------------------------------------------------
| SU2 Project Website: https://su2code.github.io                        |
|                                                                       |
| The SU2 Project is maintained by the SU2 Foundation                   |
| (http://su2foundation.org)                                            |
-------------------------------------------------------------------------
| Copyright 2012-2023, SU2 Contributors                                 |
|                                                                       |
| SU2 is free software; you can redistribute it and/or                  |
| modify it under the terms of the GNU Lesser General Public            |
| License as published by the Free Software Foundation; either          |
| version 2.1 of the License, or (at your option) any later version.    |
|                                                                       |
| SU2 is distributed in the hope that it will be useful,                |
| but WITHOUT ANY WARRANTY; without even the implied warranty of        |
| MERCHANTABILITY or FITNESS FOR A PARTICULAR PURPOSE. See the GNU      |
| Lesser General Public License for more details.                       |
|                                                                       |
| You should have received a copy of the GNU Lesser General Public      |
| License along with SU2. If not, see <http://www.gnu.org/licenses/>.   |
-------------------------------------------------------------------------

Parsing config file for zone 0

----------------- Physical Case Definition ( Zone 0 ) -------------------
Compressible RANS equations.
Turbulence model: Spalart-Allmaras-noft2
Hybrid RANS/LES: No Hybrid RANS/LES
Mach number: 0.734.
Angle of attack (AoA): 2.31 deg, and angle of sideslip (AoS): 0 deg.
Reynolds number: 6.5e+06. Reference length 1.
Fixed CL mode, target value: 0.824.
Reading and writing binary SU2 native restart files.
Read flow solution from: solution_flow.dat.
Dimensional simulation.
The reference area is 1 m^2.
The semi-span will be computed using the max y(3D) value.
The reference length is 1 m.
Reference origin for moment evaluation is (0.25, 0, 0).
Surface(s) where the force coefficients are evaluated: AIRFOIL.

Surface(s) plotted in the output file: AIRFOIL.
Surface(s) affected by the design variables: AIRFOIL.
Input mesh file name: mesh_RAE2822_turb_deform.su2

--------------- Space Numerical Integration ( Zone 0 ) ------------------
Jameson-Schmidt-Turkel scheme (2nd order in space) for the flow inviscid terms.
JST viscous coefficients (2nd & 4th): 0.5, 0.02.
The method includes a grid stretching correction (p = 0.3).
Scalar upwind solver for the turbulence model.
First order integration in space.
Average of gradients with correction (viscous flow terms).
Average of gradients with correction (viscous turbulence terms).
Gradient for viscous and source terms: inverse-distance weighted Least-Squares.

--------------- Time Numerical Integration  ( Zone 0 ) ------------------
Local time stepping (steady state simulation).
Euler implicit method for the flow equations.
FGMRES is used for solving the linear system.
Using a ILU(0) preconditioning.
Convergence criteria of the linear solver: 1e-06.
Max number of linear iterations: 10.
No CFL adaptation.
Courant-Friedrichs-Lewy number:       10
Euler implicit time integration for the turbulence model.

------------------ Convergence Criteria  ( Zone 0 ) ---------------------
Maximum number of solver subiterations: 5500.
Begin convergence monitoring at iteration 10.
Residual minimum value: 1e-12.
Cauchy series min. value: 1e-06.
Number of Cauchy elements: 100.
Begin windowed time average at iteration 0.

-------------------- Output Information ( Zone 0 ) ----------------------
File writing frequency: 
+------------------------------------+
|                     File| Frequency|
+------------------------------------+
|                  RESTART|     10000|
|                 PARAVIEW|     10000|
|         SURFACE_PARAVIEW|     10000|
|              SURFACE_CSV|     10000|
+------------------------------------+
Writing the convergence history file every 1 inner iterations.
Writing the screen convergence history every 1 inner iterations.
The tabular file format is CSV (.csv).
Convergence history file name: history_direct.
Forces breakdown file name: forces_breakdown.dat.
Surface file name: surface_flow.
Volume file name: flow.
Restart file name: restart_flow.dat.

------------- Config File Boundary Information ( Zone 0 ) ---------------
+-----------------------------------------------------------------------+
|                        Marker Type|                        Marker Name|
+-----------------------------------------------------------------------+
|                          Far-field|                           FARFIELD|
+-----------------------------------------------------------------------+
|                     Heat flux wall|                            AIRFOIL|
+-----------------------------------------------------------------------+

-------------------- Output Preprocessing ( Zone 0 ) --------------------

WARNING: SURFACE_PRESSURE_DROP can only be computed for at least 2 surfaces (outlet, inlet, ...)

Screen output fields: INNER_ITER, RMS_DENSITY, RMS_NU_TILDE, LIFT, DRAG
History output group(s): ITER, RMS_RES, AERO_COEFF
Convergence field(s): RMS_DENSITY
Warning: No (valid) fields chosen for time convergence monitoring. Time convergence monitoring inactive.
Volume output fields: COORDINATES, SOLUTION, PRIMITIVE

------------------- Geometry Preprocessing ( Zone 0 ) -------------------
Two dimensional problem.
13937 grid points before partitioning.
22842 volume elements before partitioning.
2 surface markers.
192 boundary elements in index 0 (Marker = AIRFOIL).
40 boundary elements in index 1 (Marker = FARFIELD).
Executing the partitioning functions.
Building the graph adjacency structure.
Calling ParMETIS... graph partitioning complete (831 edge cuts).
Distributing ParMETIS coloring.
Rebalancing vertices.
Rebalancing volume element connectivity.
Rebalancing markers and surface elements.
14875 vertices including ghost points. 
23674 interior elements including halo cells. 
18780 triangles.
4894 quadrilaterals.
Establishing MPI communication patterns.
Setting point connectivity.
Renumbering points (Reverse Cuthill McKee Ordering).
Recomputing point connectivity.
Setting element connectivity.
Checking the numerical grid orientation.
All volume elements are correctly orientend.
All surface elements are correctly orientend.
Identifying edges and vertices.
Setting the control volume structure.
Area of the computational grid: 32209.9.
Searching for the closest normal neighbors to the surfaces.
Storing a mapping from global to local point index.
Compute the surface curvature.
Max K: 159.037. Mean K: 7.32157. Standard deviation K: 21.7515.
Checking for periodicity.
Computing mesh quality statistics for the dual control volumes.
+--------------------------------------------------------------+
|           Mesh Quality Metric|        Minimum|        Maximum|
+--------------------------------------------------------------+
|    Orthogonality Angle (deg.)|        75.2882|        89.9991|
|     CV Face Area Aspect Ratio|        1.00149|        3358.36|
|           CV Sub-Volume Ratio|        1.00061|        1210.84|
+--------------------------------------------------------------+
Finding max control volume width.
Communicating number of neighbors.
Wetted area = 2.02333 m.
Area projection in the x-plane = 0.12392 m, y-plane = 0.995873 m.
Max. coordinate in the x-direction = 1 m, y-direction = 0.0635877 m.
Min. coordinate in the x-direction = 0 m, y-direction = -0.0593622 m.
Computing wall distances.

-------------------- Solver Preprocessing ( Zone 0 ) --------------------
WARNING: AoA in the solution file (2.78081 deg.) +
         AoA offset in mesh file (0 deg.) = 2.78081 deg.
WARNING: SU2 will use the dCD/dCL provided in the direct solution file: 0.0204483.
WARNING: SU2 will use the dCMz/dCL provided in the direct solution file: 0.0150753.
Viscous flow: Computing pressure using the ideal gas law
based on the free-stream temperature and a density computed
from the Reynolds number.
Force coefficients computed using free-stream values.

-- Models:
+------------------------------------------------------------------------------+
|          Viscosity Model|        Conductivity Model|              Fluid Model|
+------------------------------------------------------------------------------+
|               SUTHERLAND|          CONSTANT_PRANDTL|             STANDARD_AIR|
+------------------------------------------------------------------------------+
-- Fluid properties:
+------------------------------------------------------------------------------+
|                  Name|    Dim. value|    Ref. value|      Unit|Non-dim. value|
+------------------------------------------------------------------------------+
|        Ref. Viscosity|     1.716e-05|             1|   N.s/m^2|     1.716e-05|
|      Sutherland Temp.|        273.15|             1|         K|        273.15|
|     Sutherland Const.|         110.4|             1|         K|         110.4|
+------------------------------------------------------------------------------+
|        Prandtl (Lam.)|             -|             -|         -|          0.71|
|       Prandtl (Turb.)|             -|             -|         -|           0.9|
+------------------------------------------------------------------------------+
|          Gas Constant|       287.058|             1|  N.m/kg.K|       287.058|
|      Spec. Heat Ratio|             -|             -|         -|           1.4|
+------------------------------------------------------------------------------+
-- Initial and free-stream conditions:
+------------------------------------------------------------------------------+
|                  Name|    Dim. value|    Ref. value|      Unit|Non-dim. value|
+------------------------------------------------------------------------------+
|       Static Pressure|         38515|             1|        Pa|         38515|
|               Density|      0.465631|             1|    kg/m^3|      0.465631|
|           Temperature|        288.15|             1|         K|        288.15|
|          Total Energy|        237984|             1|   m^2/s^2|        237984|
|            Velocity-X|       249.484|             1|       m/s|       249.484|
|            Velocity-Y|        12.118|             1|       m/s|        12.118|
|    Velocity Magnitude|       249.778|             1|       m/s|       249.778|
+------------------------------------------------------------------------------+
|             Viscosity|    1.7893e-05|             1|   N.s/m^2|    1.7893e-05|
|          Conductivity|             -|             1|   W/m^2.K|             -|
|     Turb. Kin. Energy|       233.959|             1|   m^2/s^2|       233.959|
|     Spec. Dissipation|        608834|             1|       1/s|        608834|
+------------------------------------------------------------------------------+
|           Mach Number|             -|             -|         -|         0.734|
|       Reynolds Number|             -|             -|         -|       6.5e+06|
+------------------------------------------------------------------------------+
Initialize Jacobian structure (Navier-Stokes). MG level: 0.
Initialize Jacobian structure (SA model).

------------------- Numerics Preprocessing ( Zone 0 ) -------------------

----------------- Integration Preprocessing ( Zone 0 ) ------------------

------------------- Iteration Preprocessing ( Zone 0 ) ------------------
Euler/Navier-Stokes/RANS fluid iteration.

------------------------------ Begin Solver -----------------------------

Simulation Run using the Single-zone Driver
WARNING: SU2 was not compiled for an AVX-capable architecture. Performance could be better,
         see https://su2code.github.io/docs_v7/Build-SU2-Linux-MacOS/#compiler-optimizations
+----------------------------------------------------------------+
|  Inner_Iter|    rms[Rho]|     rms[nu]|          CL|          CD|
+----------------------------------------------------------------+
|           0|   -6.409247|   -7.646814|    0.824001|    0.012157|
|           1|   -6.466520|   -7.755366|    0.824002|    0.012157|
|           2|   -6.531970|   -7.876315|    0.824002|    0.012157|
|           3|   -6.591539|   -8.001923|    0.824002|    0.012157|
|           4|   -6.642010|   -8.122372|    0.824001|    0.012157|
|           5|   -6.678907|   -8.222191|    0.824001|    0.012157|
|           6|   -6.699042|   -8.283076|    0.824001|    0.012157|
|           7|   -6.704281|   -8.299722|    0.824001|    0.012157|
|           8|   -6.699615|   -8.286364|    0.824001|    0.012157|
|           9|   -6.689321|   -8.264974|    0.824001|    0.012157|
|          10|   -6.675977|   -8.249219|    0.824001|    0.012157|
|          11|   -6.661449|   -8.243879|    0.824002|    0.012157|
|          12|   -6.647480|   -8.248459|    0.824002|    0.012158|
|          13|   -6.635489|   -8.259064|    0.824003|    0.012158|
|          14|   -6.626272|   -8.268813|    0.824003|    0.012158|
|          15|   -6.619995|   -8.269055|    0.824003|    0.012158|
|          16|   -6.616376|   -8.253723|    0.824004|    0.012158|
|          17|   -6.614886|   -8.224260|    0.824004|    0.012159|
|          18|   -6.614864|   -8.188555|    0.824004|    0.012159|
|          19|   -6.615608|   -8.155260|    0.824004|    0.012159|
|          20|   -6.616464|   -8.130215|    0.824003|    0.012159|
|          21|   -6.616953|   -8.116207|    0.824003|    0.012159|
|          22|   -6.616877|   -8.113874|    0.824003|    0.012159|
|          23|   -6.616357|   -8.122421|    0.824003|    0.012159|
|          24|   -6.615752|   -8.139929|    0.824002|    0.012159|
|          25|   -6.615513|   -8.163552|    0.824002|    0.012160|
|          26|   -6.616024|   -8.189002|    0.824002|    0.012160|
|          27|   -6.617480|   -8.211812|    0.824002|    0.012160|
|          28|   -6.619856|   -8.228363|    0.824002|    0.012160|
|          29|   -6.622924|   -8.237251|    0.824002|    0.012160|
|          30|   -6.626333|   -8.239735|    0.824001|    0.012160|
|          31|   -6.629708|   -8.238738|    0.824001|    0.012160|
|          32|   -6.632736|   -8.237362|    0.824002|    0.012160|
|          33|   -6.635229|   -8.237941|    0.824002|    0.012160|
|          34|   -6.637136|   -8.241800|    0.824002|    0.012160|
|          35|   -6.638521|   -8.249397|    0.824002|    0.012160|
|          36|   -6.639520|   -8.260560|    0.824002|    0.012160|
|          37|   -6.640289|   -8.274689|    0.824002|    0.012160|
|          38|   -6.640972|   -8.290913|    0.824002|    0.012160|
|          39|   -6.641676|   -8.308202|    0.824001|    0.012160|
|          40|   -6.642468|   -8.325483|    0.824001|    0.012160|
|          41|   -6.643380|   -8.341735|    0.824001|    0.012160|
|          42|   -6.644410|   -8.356097|    0.824001|    0.012160|
|          43|   -6.645536|   -8.367961|    0.824001|    0.012160|
|          44|   -6.646721|   -8.377022|    0.824001|    0.012160|
|          45|   -6.647915|   -8.383298|    0.824000|    0.012160|
|          46|   -6.649064|   -8.387083|    0.824000|    0.012160|
|          47|   -6.650105|   -8.388872|    0.824000|    0.012160|
|          48|   -6.650981|   -8.389258|    0.824000|    0.012160|
|          49|   -6.651637|   -8.388842|    0.823999|    0.012160|
|          50|   -6.652031|   -8.388161|    0.823999|    0.012160|
|          51|   -6.652134|   -8.387643|    0.823999|    0.012160|
|          52|   -6.651940|   -8.387583|    0.823998|    0.012160|
|          53|   -6.651465|   -8.388147|    0.823998|    0.012160|
|          54|   -6.650745|   -8.389387|    0.823998|    0.012160|
|          55|   -6.649831|   -8.391267|    0.823998|    0.012160|
|          56|   -6.648783|   -8.393695|    0.823997|    0.012160|
|          57|   -6.647661|   -8.396557|    0.823997|    0.012160|
|          58|   -6.646515|   -8.399744|    0.823997|    0.012160|
|          59|   -6.645386|   -8.403173|    0.823997|    0.012160|
|          60|   -6.644294|   -8.406801|    0.823997|    0.012160|
|          61|   -6.643248|   -8.410623|    0.823996|    0.012160|
|          62|   -6.642244|   -8.414663|    0.823996|    0.012160|
|          63|   -6.641274|   -8.418963|    0.823996|    0.012160|
|          64|   -6.640328|   -8.423564|    0.823996|    0.012160|
|          65|   -6.639404|   -8.428492|    0.823996|    0.012160|
|          66|   -6.638506|   -8.433756|    0.823996|    0.012160|
|          67|   -6.637649|   -8.439334|    0.823996|    0.012160|
|          68|   -6.636853|   -8.445185|    0.823996|    0.012160|
|          69|   -6.636141|   -8.451247|    0.823996|    0.012159|
|          70|   -6.635536|   -8.457450|    0.823996|    0.012159|
|          71|   -6.635059|   -8.463717|    0.823996|    0.012159|
|          72|   -6.634720|   -8.469980|    0.823996|    0.012159|
|          73|   -6.634525|   -8.476174|    0.823996|    0.012159|
|          74|   -6.634470|   -8.482245|    0.823996|    0.012159|
|          75|   -6.634550|   -8.488150|    0.823996|    0.012159|
|          76|   -6.634754|   -8.493850|    0.823996|    0.012159|
|          77|   -6.635073|   -8.499315|    0.823996|    0.012159|
|          78|   -6.635500|   -8.504515|    0.823997|    0.012159|
|          79|   -6.636032|   -8.509424|    0.823997|    0.012159|
|          80|   -6.636668|   -8.514019|    0.823997|    0.012159|
|          81|   -6.637405|   -8.518281|    0.823997|    0.012159|
|          82|   -6.638242|   -8.522196|    0.823997|    0.012159|
|          83|   -6.639173|   -8.525758|    0.823997|    0.012159|
|          84|   -6.640184|   -8.528970|    0.823997|    0.012159|
|          85|   -6.641254|   -8.531842|    0.823997|    0.012159|
|          86|   -6.642358|   -8.534394|    0.823997|    0.012159|
|          87|   -6.643459|   -8.536654|    0.823997|    0.012158|
|          88|   -6.644522|   -8.538653|    0.823997|    0.012158|
|          89|   -6.645509|   -8.540426|    0.823997|    0.012158|
|          90|   -6.646388|   -8.542012|    0.823997|    0.012158|
|          91|   -6.647133|   -8.543447|    0.823997|    0.012158|
|          92|   -6.647730|   -8.544769|    0.823997|    0.012158|
|          93|   -6.648181|   -8.546014|    0.823997|    0.012158|
|          94|   -6.648497|   -8.547216|    0.823997|    0.012158|
|          95|   -6.648706|   -8.548411|    0.823997|    0.012158|
|          96|   -6.648847|   -8.549631|    0.823998|    0.012158|
|          97|   -6.648968|   -8.550907|    0.823998|    0.012158|
|          98|   -6.649122|   -8.552271|    0.823998|    0.012158|
|          99|   -6.649365|   -8.553751|    0.823998|    0.012158|
|         100|   -6.649750|   -8.555376|    0.823998|    0.012158|
|         101|   -6.650327|   -8.557171|    0.823998|    0.012158|
+-----------------------------------------------------------------------+
|Fixed CL Mode                           |Value                         |
+-----------------------------------------------------------------------+
|Current CL                              |0.823998                      |
|Target CL                               |0.824                         |
|Previous AOA                            |2.78081                       |
|Changed AoA by                          |1.09452e-05                   |
+-----------------------------------------------------------------------+
+----------------------------------------------------------------+
|  Inner_Iter|    rms[Rho]|     rms[nu]|          CL|          CD|
+----------------------------------------------------------------+
|         102|   -5.154017|   -8.550762|    0.823998|    0.012158|
|         103|   -5.539279|   -8.557252|    0.823998|    0.012158|
|         104|   -5.787059|   -8.560874|    0.823998|    0.012158|
|         105|   -5.868314|   -8.564137|    0.823998|    0.012158|
|         106|   -5.922045|   -8.567439|    0.823998|    0.012158|
|         107|   -5.990262|   -8.570876|    0.823999|    0.012158|
|         108|   -6.072791|   -8.574474|    0.823999|    0.012158|
|         109|   -6.155394|   -8.578234|    0.823999|    0.012158|
|         110|   -6.221203|   -8.582146|    0.823999|    0.012158|
|         111|   -6.264192|   -8.586188|    0.823999|    0.012158|
|         112|   -6.289174|   -8.590332|    0.823999|    0.012158|
|         113|   -6.302079|   -8.594556|    0.823999|    0.012158|
|         114|   -6.307302|   -8.598837|    0.824000|    0.012158|
|         115|   -6.309559|   -8.603150|    0.824000|    0.012158|
|         116|   -6.313541|   -8.607458|    0.824000|    0.012158|
|         117|   -6.322183|   -8.611719|    0.824000|    0.012158|
|         118|   -6.335863|   -8.615893|    0.824000|    0.012158|
|         119|   -6.352853|   -8.619944|    0.824000|    0.012158|
|         120|   -6.370536|   -8.623840|    0.824000|    0.012158|
|         121|   -6.386853|   -8.627557|    0.824001|    0.012158|
|         122|   -6.401204|   -8.631070|    0.824001|    0.012158|
|         123|   -6.414266|   -8.634361|    0.824001|    0.012158|
|         124|   -6.427084|   -8.637416|    0.824001|    0.012158|
|         125|   -6.440266|   -8.640228|    0.824001|    0.012158|
|         126|   -6.453743|   -8.642797|    0.824001|    0.012158|
|         127|   -6.466959|   -8.645128|    0.824001|    0.012158|
|         128|   -6.479200|   -8.647230|    0.824001|    0.012158|
|         129|   -6.489840|   -8.649118|    0.824001|    0.012158|
|         130|   -6.498472|   -8.650809|    0.824001|    0.012158|
|         131|   -6.504978|   -8.652321|    0.824002|    0.012159|
|         132|   -6.509564|   -8.653677|    0.824002|    0.012159|
|         133|   -6.512728|   -8.654897|    0.824002|    0.012159|
|         134|   -6.515146|   -8.656006|    0.824002|    0.012159|
|         135|   -6.517500|   -8.657026|    0.824002|    0.012159|
|         136|   -6.520323|   -8.657979|    0.824002|    0.012159|
|         137|   -6.523902|   -8.658886|    0.824002|    0.012159|
|         138|   -6.528259|   -8.659767|    0.824002|    0.012159|
|         139|   -6.533171|   -8.660640|    0.824002|    0.012159|
|         140|   -6.538238|   -8.661518|    0.824002|    0.012159|
|         141|   -6.542972|   -8.662414|    0.824002|    0.012159|
|         142|   -6.546908|   -8.663333|    0.824002|    0.012159|
|         143|   -6.549725|   -8.664279|    0.824002|    0.012159|
|         144|   -6.551323|   -8.665251|    0.824002|    0.012159|
|         145|   -6.551837|   -8.666242|    0.824003|    0.012159|
|         146|   -6.551584|   -8.667241|    0.824003|    0.012159|
|         147|   -6.550957|   -8.668233|    0.824003|    0.012159|
|         148|   -6.550320|   -8.669199|    0.824003|    0.012159|
|         149|   -6.549931|   -8.670120|    0.824003|    0.012159|
|         150|   -6.549908|   -8.670971|    0.824003|    0.012159|
|         151|   -6.550236|   -8.671731|    0.824003|    0.012159|
|         152|   -6.550802|   -8.672380|    0.824003|    0.012159|
|         153|   -6.551441|   -8.672898|    0.824003|    0.012159|
|         154|   -6.551987|   -8.673271|    0.824003|    0.012159|
|         155|   -6.552313|   -8.673491|    0.824003|    0.012160|
|         156|   -6.552347|   -8.673554|    0.824003|    0.012160|
|         157|   -6.552084|   -8.673462|    0.824003|    0.012160|
|         158|   -6.551567|   -8.673224|    0.824003|    0.012160|
|         159|   -6.550872|   -8.672854|    0.824004|    0.012160|
|         160|   -6.550087|   -8.672371|    0.824004|    0.012160|
|         161|   -6.549290|   -8.671798|    0.824004|    0.012160|
|         162|   -6.548542|   -8.671163|    0.824004|    0.012160|
|         163|   -6.547883|   -8.670494|    0.824004|    0.012160|
|         164|   -6.547333|   -8.669822|    0.824004|    0.012160|
|         165|   -6.546896|   -8.669177|    0.824004|    0.012160|
|         166|   -6.546568|   -8.668588|    0.824004|    0.012160|
|         167|   -6.546342|   -8.668085|    0.824004|    0.012160|
|         168|   -6.546206|   -8.667693|    0.824004|    0.012160|
|         169|   -6.546155|   -8.667436|    0.824004|    0.012160|
|         170|   -6.546180|   -8.667336|    0.824004|    0.012160|
|         171|   -6.546275|   -8.667409|    0.824004|    0.012160|
|         172|   -6.546434|   -8.667672|    0.824004|    0.012160|
|         173|   -6.546649|   -8.668136|    0.824005|    0.012160|
|         174|   -6.546910|   -8.668810|    0.824005|    0.012160|
|         175|   -6.547208|   -8.669701|    0.824005|    0.012160|
|         176|   -6.547531|   -8.670813|    0.824005|    0.012160|
|         177|   -6.547867|   -8.672149|    0.824005|    0.012160|
|         178|   -6.548204|   -8.673709|    0.824005|    0.012160|
|         179|   -6.548533|   -8.675492|    0.824005|    0.012160|
|         180|   -6.548846|   -8.677497|    0.824005|    0.012160|
|         181|   -6.549138|   -8.679722|    0.824005|    0.012160|
|         182|   -6.549406|   -8.682163|    0.824005|    0.012160|
|         183|   -6.549654|   -8.684818|    0.824005|    0.012160|
|         184|   -6.549888|   -8.687685|    0.824005|    0.012160|
|         185|   -6.550120|   -8.690761|    0.824005|    0.012160|
|         186|   -6.550366|   -8.694042|    0.824005|    0.012160|
|         187|   -6.550648|   -8.697529|    0.824005|    0.012160|
|         188|   -6.550991|   -8.701219|    0.824005|    0.012160|
|         189|   -6.551426|   -8.705111|    0.824005|    0.012160|
|         190|   -6.551984|   -8.709206|    0.824005|    0.012160|
|         191|   -6.552699|   -8.713503|    0.824005|    0.012160|
|         192|   -6.553606|   -8.718003|    0.824005|    0.012160|
|         193|   -6.554739|   -8.722706|    0.824005|    0.012160|
|         194|   -6.556129|   -8.727614|    0.824005|    0.012160|
|         195|   -6.557804|   -8.732727|    0.824005|    0.012160|
|         196|   -6.559788|   -8.738046|    0.824005|    0.012160|
|         197|   -6.562098|   -8.743571|    0.824005|    0.012160|
|         198|   -6.564746|   -8.749304|    0.824005|    0.012160|
|         199|   -6.567734|   -8.755243|    0.824005|    0.012159|
|         200|   -6.571058|   -8.761387|    0.824005|    0.012159|
|         201|   -6.574701|   -8.767735|    0.824005|    0.012159|
+-----------------------------------------------------------------------+
|Fixed CL Mode                           |Value                         |
+-----------------------------------------------------------------------+
|Current CL                              |0.824005                      |
|Target CL                               |0.824                         |
|Previous AOA                            |2.78082                       |
|Changed AoA by                          |-2.42894e-05                  |
+-----------------------------------------------------------------------+
+----------------------------------------------------------------+
|  Inner_Iter|    rms[Rho]|     rms[nu]|          CL|          CD|
+----------------------------------------------------------------+
|         202|   -4.807905|   -8.680240|    0.824005|    0.012159|
|         203|   -5.192247|   -8.728116|    0.824005|    0.012159|
|         204|   -5.435902|   -8.748076|    0.824005|    0.012159|
|         205|   -5.514384|   -8.762248|    0.824005|    0.012159|
|         206|   -5.567821|   -8.774550|    0.824005|    0.012159|
|         207|   -5.637293|   -8.785909|    0.824005|    0.012159|
|         208|   -5.723229|   -8.796614|    0.824005|    0.012159|
|         209|   -5.812849|   -8.806820|    0.824005|    0.012159|
|         210|   -5.889616|   -8.816598|    0.824005|    0.012159|
|         211|   -5.945156|   -8.825915|    0.824005|    0.012159|
|         212|   -5.981209|   -8.834744|    0.824005|    0.012159|
|         213|   -6.001835|   -8.843184|    0.824005|    0.012159|
|         214|   -6.011044|   -8.851421|    0.824005|    0.012159|
|         215|   -6.014627|   -8.859592|    0.824005|    0.012159|
|         216|   -6.018984|   -8.867733|    0.824005|    0.012159|
|         217|   -6.028354|   -8.875807|    0.824005|    0.012159|
|         218|   -6.043670|   -8.883776|    0.824005|    0.012159|
|         219|   -6.063114|   -8.891649|    0.824005|    0.012159|
|         220|   -6.083588|   -8.899468|    0.824005|    0.012159|
|         221|   -6.102507|   -8.907278|    0.824005|    0.012159|
|         222|   -6.119038|   -8.915081|    0.824005|    0.012159|
|         223|   -6.133997|   -8.922829|    0.824005|    0.012158|
|         224|   -6.148723|   -8.930458|    0.824005|    0.012158|
|         225|   -6.164037|   -8.937899|    0.824005|    0.012158|
|         226|   -6.179909|   -8.945107|    0.824005|    0.012158|
|         227|   -6.195700|   -8.952057|    0.824006|    0.012158|
|         228|   -6.210565|   -8.958746|    0.824006|    0.012158|
|         229|   -6.223763|   -8.965187|    0.824006|    0.012158|
|         230|   -6.234807|   -8.971405|    0.824006|    0.012158|
|         231|   -6.243551|   -8.977429|    0.824006|    0.012158|
|         232|   -6.250238|   -8.983293|    0.824006|    0.012158|
|         233|   -6.255496|   -8.989026|    0.824006|    0.012158|
|         234|   -6.260209|   -8.994634|    0.824006|    0.012158|
|         235|   -6.265300|   -9.000134|    0.824006|    0.012158|
|         236|   -6.271532|   -9.005506|    0.824006|    0.012158|
|         237|   -6.279374|   -9.010726|    0.824006|    0.012158|
|         238|   -6.288948|   -9.015748|    0.824006|    0.012158|
|         239|   -6.300031|   -9.020518|    0.824006|    0.012158|
|         240|   -6.312099|   -9.024980|    0.824007|    0.012158|
|         241|   -6.324411|   -9.029074|    0.824007|    0.012158|
|         242|   -6.336151|   -9.032748|    0.824007|    0.012158|
|         243|   -6.346624|   -9.035951|    0.824007|    0.012158|
|         244|   -6.355453|   -9.038647|    0.824007|    0.012159|
|         245|   -6.362686|   -9.040808|    0.824007|    0.012159|
|         246|   -6.368767|   -9.042399|    0.824007|    0.012159|
|         247|   -6.374374|   -9.043451|    0.824007|    0.012159|
|         248|   -6.380218|   -9.043975|    0.824007|    0.012159|
|         249|   -6.386864|   -9.043953|    0.824007|    0.012159|
|         250|   -6.394639|   -9.043406|    0.824007|    0.012159|
|         251|   -6.403600|   -9.042368|    0.824007|    0.012159|
|         252|   -6.413577|   -9.040892|    0.824007|    0.012159|
|         253|   -6.424236|   -9.039051|    0.824007|    0.012159|
|         254|   -6.435174|   -9.036932|    0.824007|    0.012159|
|         255|   -6.446006|   -9.034639|    0.824007|    0.012159|
|         256|   -6.456448|   -9.032295|    0.824007|    0.012159|
|         257|   -6.466354|   -9.030020|    0.824007|    0.012159|
|         258|   -6.475727|   -9.027946|    0.824007|    0.012159|
|         259|   -6.484682|   -9.026207|    0.824007|    0.012159|
|         260|   -6.493398|   -9.024931|    0.824006|    0.012159|
|         261|   -6.502061|   -9.024242|    0.824006|    0.012159|
|         262|   -6.510827|   -9.024259|    0.824006|    0.012159|
|         263|   -6.519793|   -9.025079|    0.824006|    0.012159|
|         264|   -6.528999|   -9.026801|    0.824006|    0.012159|
|         265|   -6.538431|   -9.029490|    0.824006|    0.012159|
|         266|   -6.548046|   -9.033198|    0.824006|    0.012159|
|         267|   -6.557781|   -9.037950|    0.824005|    0.012159|
|         268|   -6.567572|   -9.043738|    0.824005|    0.012159|
|         269|   -6.577357|   -9.050515|    0.824005|    0.012159|
|         270|   -6.587083|   -9.058195|    0.824005|    0.012159|
|         271|   -6.596700|   -9.066626|    0.824005|    0.012159|
|         272|   -6.606155|   -9.075595|    0.824005|    0.012159|
|         273|   -6.615391|   -9.084813|    0.824004|    0.012159|
|         274|   -6.624341|   -9.093913|    0.824004|    0.012159|
|         275|   -6.632930|   -9.102453|    0.824004|    0.012159|
|         276|   -6.641078|   -9.109928|    0.824004|    0.012159|
|         277|   -6.648703|   -9.115809|    0.824004|    0.012159|
|         278|   -6.655731|   -9.119586|    0.824004|    0.012159|
|         279|   -6.662095|   -9.120839|    0.824003|    0.012159|
|         280|   -6.667749|   -9.119298|    0.824003|    0.012159|
|         281|   -6.672662|   -9.114886|    0.824003|    0.012159|
|         282|   -6.676825|   -9.107740|    0.824003|    0.012159|
|         283|   -6.680252|   -9.098186|    0.824003|    0.012159|
|         284|   -6.682972|   -9.086689|    0.824003|    0.012159|
|         285|   -6.685035|   -9.073789|    0.824003|    0.012159|
|         286|   -6.686503|   -9.060037|    0.824003|    0.012159|
|         287|   -6.687448|   -9.045950|    0.824003|    0.012159|
|         288|   -6.687950|   -9.031984|    0.824003|    0.012159|
|         289|   -6.688091|   -9.018518|    0.824003|    0.012159|
|         290|   -6.687953|   -9.005855|    0.824003|    0.012159|
|         291|   -6.687616|   -8.994230|    0.824003|    0.012159|
|         292|   -6.687153|   -8.983816|    0.824003|    0.012159|
|         293|   -6.686632|   -8.974734|    0.824003|    0.012159|
|         294|   -6.686111|   -8.967067|    0.824003|    0.012159|
|         295|   -6.685642|   -8.960861|    0.824003|    0.012159|
|         296|   -6.685265|   -8.956138|    0.824003|    0.012159|
|         297|   -6.685014|   -8.952896|    0.824003|    0.012159|
|         298|   -6.684914|   -8.951115|    0.824003|    0.012159|
|         299|   -6.684985|   -8.950760|    0.824003|    0.012159|
|         300|   -6.685238|   -8.951782|    0.824003|    0.012159|
|         301|   -6.685682|   -8.954116|    0.824003|    0.012159|
+-----------------------------------------------------------------------+
|Fixed CL Mode                           |Value                         |
+-----------------------------------------------------------------------+
|Current CL                              |0.824003                      |
|Target CL                               |0.824                         |
|Previous AOA                            |2.78079                       |
|Changed AoA by                          |-1.68327e-05                  |
+-----------------------------------------------------------------------+
+----------------------------------------------------------------+
|  Inner_Iter|    rms[Rho]|     rms[nu]|          CL|          CD|
+----------------------------------------------------------------+
|         302|   -4.967090|   -8.853605|    0.824004|    0.012159|
|         303|   -5.350416|   -8.903549|    0.824004|    0.012159|
|         304|   -5.591339|   -8.924284|    0.824004|    0.012159|
|         305|   -5.668554|   -8.939306|    0.824004|    0.012159|
|         306|   -5.721541|   -8.952651|    0.824004|    0.012159|
|         307|   -5.790310|   -8.965237|    0.824004|    0.012159|
|         308|   -5.875087|   -8.977291|    0.824004|    0.012159|
|         309|   -5.963451|   -8.988912|    0.824004|    0.012159|
|         310|   -6.039778|   -9.000098|    0.824004|    0.012159|
|         311|   -6.096368|   -9.010713|    0.824005|    0.012159|
|         312|   -6.134699|   -9.020602|    0.824005|    0.012159|
|         313|   -6.158024|   -9.029760|    0.824005|    0.012159|
|         314|   -6.169564|   -9.038243|    0.824005|    0.012159|
|         315|   -6.174697|   -9.046098|    0.824005|    0.012159|
|         316|   -6.179865|   -9.053256|    0.824005|    0.012159|
|         317|   -6.189578|   -9.059596|    0.824005|    0.012159|
|         318|   -6.205065|   -9.065034|    0.824005|    0.012159|
|         319|   -6.224781|   -9.069588|    0.824005|    0.012158|
|         320|   -6.245883|   -9.073338|    0.824005|    0.012158|
|         321|   -6.265987|   -9.076385|    0.824006|    0.012158|
|         322|   -6.284355|   -9.078806|    0.824006|    0.012158|
|         323|   -6.301784|   -9.080638|    0.824006|    0.012158|
|         324|   -6.319512|   -9.081902|    0.824006|    0.012158|
|         325|   -6.338201|   -9.082630|    0.824006|    0.012158|
|         326|   -6.357592|   -9.082882|    0.824006|    0.012158|
|         327|   -6.376755|   -9.082743|    0.824006|    0.012158|
|         328|   -6.394541|   -9.082316|    0.824006|    0.012158|
|         329|   -6.409968|   -9.081719|    0.824006|    0.012158|
|         330|   -6.422444|   -9.081064|    0.824006|    0.012158|
|         331|   -6.431880|   -9.080463|    0.824006|    0.012158|
|         332|   -6.438713|   -9.080008|    0.824006|    0.012158|
|         333|   -6.443833|   -9.079768|    0.824006|    0.012158|
|         334|   -6.448364|   -9.079788|    0.824006|    0.012158|
|         335|   -6.453396|   -9.080088|    0.824006|    0.012158|
|         336|   -6.459757|   -9.080664|    0.824006|    0.012158|
|         337|   -6.467882|   -9.081509|    0.824006|    0.012158|
|         338|   -6.477784|   -9.082594|    0.824006|    0.012158|
|         339|   -6.489072|   -9.083877|    0.824006|    0.012158|
|         340|   -6.501017|   -9.085328|    0.824006|    0.012158|
|         341|   -6.512671|   -9.086922|    0.824006|    0.012158|
|         342|   -6.523053|   -9.088641|    0.824006|    0.012158|
|         343|   -6.531400|   -9.090470|    0.824006|    0.012158|
|         344|   -6.537390|   -9.092401|    0.824006|    0.012158|
|         345|   -6.541239|   -9.094434|    0.824006|    0.012158|
|         346|   -6.543603|   -9.096573|    0.824006|    0.012158|
|         347|   -6.545348|   -9.098808|    0.824006|    0.012158|
|         348|   -6.547302|   -9.101122|    0.824006|    0.012158|
|         349|   -6.550074|   -9.103500|    0.824006|    0.012158|
|         350|   -6.553971|   -9.105919|    0.824006|    0.012158|
|         351|   -6.559007|   -9.108349|    0.824006|    0.012158|
|         352|   -6.564968|   -9.110753|    0.824006|    0.012158|
|         353|   -6.571497|   -9.113093|    0.824005|    0.012158|
|         354|   -6.578198|   -9.115321|    0.824005|    0.012158|
|         355|   -6.584732|   -9.117391|    0.824005|    0.012158|
|         356|   -6.590875|   -9.119259|    0.824005|    0.012158|
|         357|   -6.596553|   -9.120883|    0.824005|    0.012158|
|         358|   -6.601826|   -9.122234|    0.824005|    0.012158|
|         359|   -6.606849|   -9.123287|    0.824005|    0.012158|
|         360|   -6.611819|   -9.124031|    0.824005|    0.012158|
|         361|   -6.616925|   -9.124472|    0.824005|    0.012158|
|         362|   -6.622318|   -9.124628|    0.824005|    0.012158|
|         363|   -6.628097|   -9.124551|    0.824005|    0.012158|
|         364|   -6.634309|   -9.124286|    0.824005|    0.012158|
|         365|   -6.640962|   -9.123906|    0.824004|    0.012158|
|         366|   -6.648043|   -9.123496|    0.824004|    0.012158|
|         367|   -6.655529|   -9.123153|    0.824004|    0.012158|
|         368|   -6.663403|   -9.122977|    0.824004|    0.012158|
|         369|   -6.671653|   -9.123074|    0.824004|    0.012158|
|         370|   -6.680277|   -9.123547|    0.824004|    0.012158|
|         371|   -6.689277|   -9.124492|    0.824004|    0.012158|
|         372|   -6.698658|   -9.125999|    0.824004|    0.012158|
|         373|   -6.708417|   -9.128142|    0.824004|    0.012158|
|         374|   -6.718546|   -9.130978|    0.824003|    0.012158|
|         375|   -6.729026|   -9.134547|    0.824003|    0.012158|
|         376|   -6.739829|   -9.138862|    0.824003|    0.012159|
|         377|   -6.750916|   -9.143910|    0.824003|    0.012159|
|         378|   -6.762241|   -9.149649|    0.824003|    0.012159|
|         379|   -6.773750|   -9.156002|    0.824003|    0.012159|
|         380|   -6.785387|   -9.162857|    0.824003|    0.012159|
|         381|   -6.797087|   -9.170064|    0.824003|    0.012159|
|         382|   -6.808784|   -9.177437|    0.824003|    0.012159|
|         383|   -6.820408|   -9.184759|    0.824003|    0.012159|
|         384|   -6.831890|   -9.191783|    0.824002|    0.012159|
|         385|   -6.843156|   -9.198250|    0.824002|    0.012159|
|         386|   -6.854134|   -9.203906|    0.824002|    0.012159|
|         387|   -6.864754|   -9.208519|    0.824002|    0.012159|
|         388|   -6.874952|   -9.211905|    0.824002|    0.012159|
|         389|   -6.884665|   -9.213948|    0.824002|    0.012159|
|         390|   -6.893841|   -9.214615|    0.824002|    0.012159|
|         391|   -6.902434|   -9.213962|    0.824002|    0.012159|
|         392|   -6.910408|   -9.212130|    0.824002|    0.012159|
|         393|   -6.917739|   -9.209333|    0.824002|    0.012159|
|         394|   -6.924407|   -9.205833|    0.824002|    0.012159|
|         395|   -6.930407|   -9.201922|    0.824002|    0.012159|
|         396|   -6.935740|   -9.197901|    0.824002|    0.012159|
|         397|   -6.940415|   -9.194060|    0.824002|    0.012159|
|         398|   -6.944448|   -9.190666|    0.824002|    0.012159|
|         399|   -6.947863|   -9.187957|    0.824002|    0.012159|
|         400|   -6.950687|   -9.186139|    0.824002|    0.012159|
|         401|   -6.952953|   -9.185380|    0.824002|    0.012158|
+-----------------------------------------------------------------------+
|Fixed CL Mode                           |Value                         |
+-----------------------------------------------------------------------+
|Current CL                              |0.824002                      |
|Target CL                               |0.824                         |
|Previous AOA                            |2.78078                       |
|Changed AoA by                          |-1.15436e-05                  |
+-----------------------------------------------------------------------+
+----------------------------------------------------------------+
|  Inner_Iter|    rms[Rho]|     rms[nu]|          CL|          CD|
+----------------------------------------------------------------+
|         402|   -5.131023|   -9.055950|    0.824002|    0.012158|
|         403|   -5.514606|   -9.113451|    0.824002|    0.012158|
|         404|   -5.755494|   -9.135591|    0.824002|    0.012158|
|         405|   -5.832239|   -9.150857|    0.824003|    0.012158|
|         406|   -5.885010|   -9.164453|    0.824003|    0.012158|
|         407|   -5.953913|   -9.177655|    0.824003|    0.012158|
|         408|   -6.039261|   -9.190879|    0.824003|    0.012158|
|         409|   -6.128796|   -9.204378|    0.824003|    0.012158|
|         410|   -6.206868|   -9.218231|    0.824003|    0.012158|
|         411|   -6.265410|   -9.232352|    0.824003|    0.012158|
|         412|   -6.305451|   -9.246566|    0.824003|    0.012158|
|         413|   -6.329935|   -9.260819|    0.824003|    0.012158|
|         414|   -6.341971|   -9.275132|    0.824003|    0.012158|
|         415|   -6.347092|   -9.289439|    0.824003|    0.012158|
|         416|   -6.352031|   -9.303467|    0.824003|    0.012158|
|         417|   -6.361519|   -9.316791|    0.824003|    0.012158|
|         418|   -6.376860|   -9.328994|    0.824003|    0.012158|
|         419|   -6.396482|   -9.339758|    0.824003|    0.012158|
|         420|   -6.417467|   -9.348888|    0.824003|    0.012158|
|         421|   -6.437374|   -9.356253|    0.824003|    0.012158|
|         422|   -6.455466|   -9.361743|    0.824003|    0.012158|
|         423|   -6.472585|   -9.365251|    0.824003|    0.012158|
|         424|   -6.490013|   -9.366729|    0.824003|    0.012158|
|         425|   -6.508428|   -9.366232|    0.824003|    0.012158|
|         426|   -6.527555|   -9.363939|    0.824003|    0.012158|
|         427|   -6.546432|   -9.360140|    0.824003|    0.012158|
|         428|   -6.563885|   -9.355181|    0.824003|    0.012158|
|         429|   -6.578929|   -9.349430|    0.824003|    0.012158|
|         430|   -6.590995|   -9.343243|    0.824003|    0.012158|
|         431|   -6.600038|   -9.336933|    0.824003|    0.012158|
|         432|   -6.606554|   -9.330757|    0.824003|    0.012158|
|         433|   -6.611486|   -9.324904|    0.824003|    0.012158|
|         434|   -6.616008|   -9.319499|    0.824003|    0.012158|
|         435|   -6.621246|   -9.314603|    0.824003|    0.012158|
|         436|   -6.628057|   -9.310232|    0.824003|    0.012158|
|         437|   -6.636906|   -9.306363|    0.824003|    0.012158|
|         438|   -6.647831|   -9.302948|    0.824003|    0.012158|
|         439|   -6.660460|   -9.299928|    0.824003|    0.012158|
|         440|   -6.674070|   -9.297235|    0.824003|    0.012158|
|         441|   -6.687684|   -9.294808|    0.824003|    0.012158|
|         442|   -6.700256|   -9.292593|    0.824003|    0.012158|
|         443|   -6.710925|   -9.290544|    0.824003|    0.012158|
|         444|   -6.719265|   -9.288627|    0.824003|    0.012158|
|         445|   -6.725420|   -9.286815|    0.824003|    0.012158|
|         446|   -6.730027|   -9.285085|    0.824003|    0.012158|
|         447|   -6.733995|   -9.283419|    0.824003|    0.012158|
|         448|   -6.738227|   -9.281794|    0.824003|    0.012158|
|         449|   -6.743414|   -9.280185|    0.824003|    0.012158|
|         450|   -6.749931|   -9.278561|    0.824003|    0.012158|
|         451|   -6.757828|   -9.276886|    0.824003|    0.012158|
|         452|   -6.766884|   -9.275116|    0.824003|    0.012158|
|         453|   -6.776697|   -9.273205|    0.824003|    0.012158|
|         454|   -6.786791|   -9.271103|    0.824003|    0.012158|
|         455|   -6.796726|   -9.268764|    0.824002|    0.012158|
|         456|   -6.806181|   -9.266141|    0.824002|    0.012158|
|         457|   -6.815006|   -9.263198|    0.824002|    0.012158|
|         458|   -6.823220|   -9.259909|    0.824002|    0.012158|
|         459|   -6.830973|   -9.256266|    0.824002|    0.012158|
|         460|   -6.838481|   -9.252272|    0.824002|    0.012158|
|         461|   -6.845965|   -9.247950|    0.824002|    0.012158|
|         462|   -6.853603|   -9.243359|    0.824002|    0.012158|
|         463|   -6.861512|   -9.238551|    0.824002|    0.012158|
|         464|   -6.869742|   -9.233610|    0.824002|    0.012158|
|         465|   -6.878291|   -9.228631|    0.824002|    0.012158|
|         466|   -6.887124|   -9.223718|    0.824002|    0.012158|
|         467|   -6.896194|   -9.218981|    0.824002|    0.012158|
|         468|   -6.905455|   -9.214528|    0.824002|    0.012158|
|         469|   -6.914873|   -9.210463|    0.824001|    0.012158|
|         470|   -6.924425|   -9.206883|    0.824001|    0.012158|
|         471|   -6.934095|   -9.203873|    0.824001|    0.012158|
|         472|   -6.943868|   -9.201501|    0.824001|    0.012158|
|         473|   -6.953726|   -9.199822|    0.824001|    0.012158|
|         474|   -6.963638|   -9.198869|    0.824001|    0.012159|
|         475|   -6.973562|   -9.198656|    0.824001|    0.012159|
|         476|   -6.983446|   -9.199173|    0.824001|    0.012159|
|         477|   -6.993226|   -9.200390|    0.824001|    0.012159|
|         478|   -7.002837|   -9.202252|    0.824001|    0.012159|
|         479|   -7.012208|   -9.204682|    0.824001|    0.012159|
|         480|   -7.021274|   -9.207579|    0.824001|    0.012159|
|         481|   -7.029975|   -9.210820|    0.824001|    0.012159|
|         482|   -7.038260|   -9.214266|    0.824001|    0.012159|
|         483|   -7.046088|   -9.217759|    0.824000|    0.012159|
|         484|   -7.053428|   -9.221138|    0.824000|    0.012159|
|         485|   -7.060265|   -9.224238|    0.824000|    0.012159|
|         486|   -7.066595|   -9.226904|    0.824000|    0.012159|
|         487|   -7.072428|   -9.228999|    0.824000|    0.012159|
|         488|   -7.077788|   -9.230418|    0.824000|    0.012159|
|         489|   -7.082707|   -9.231091|    0.824000|    0.012159|
|         490|   -7.087230|   -9.230991|    0.824000|    0.012159|
|         491|   -7.091408|   -9.230135|    0.824000|    0.012159|
|         492|   -7.095296|   -9.228586|    0.824000|    0.012159|
|         493|   -7.098952|   -9.226440|    0.824000|    0.012159|
|         494|   -7.102433|   -9.223824|    0.824000|    0.012159|
|         495|   -7.105795|   -9.220883|    0.824000|    0.012159|
|         496|   -7.109086|   -9.217770|    0.824000|    0.012159|
|         497|   -7.112353|   -9.214637|    0.824000|    0.012159|
|         498|   -7.115631|   -9.211626|    0.824000|    0.012159|
|         499|   -7.118953|   -9.208865|    0.824000|    0.012159|
|         500|   -7.122340|   -9.206463|    0.824000|    0.012159|
|         501|   -7.125809|   -9.204504|    0.824001|    0.012159|
|         502|   -7.129367|   -9.203050|    0.824001|    0.012159|
|         503|   -7.133015|   -9.202140|    0.824001|    0.012159|
|         504|   -7.136748|   -9.201788|    0.824001|    0.012159|
|         505|   -7.140553|   -9.201986|    0.824001|    0.012159|
|         506|   -7.144414|   -9.202704|    0.824001|    0.012159|
|         507|   -7.148310|   -9.203893|    0.824001|    0.012159|
|         508|   -7.152213|   -9.205489|    0.824001|    0.012159|
|         509|   -7.156095|   -9.207410|    0.824001|    0.012159|
|         510|   -7.159926|   -9.209567|    0.824001|    0.012159|
|         511|   -7.163673|   -9.211862|    0.824001|    0.012159|
|         512|   -7.167306|   -9.214194|    0.824001|    0.012159|
|         513|   -7.170793|   -9.216467|    0.824001|    0.012159|
|         514|   -7.174107|   -9.218590|    0.824001|    0.012158|
|         515|   -7.177225|   -9.220484|    0.824001|    0.012158|
|         516|   -7.180127|   -9.222089|    0.824001|    0.012158|
|         517|   -7.182798|   -9.223363|    0.824001|    0.012158|
|         518|   -7.185231|   -9.224287|    0.824001|    0.012158|
|         519|   -7.187425|   -9.224864|    0.824001|    0.012158|
|         520|   -7.189385|   -9.225119|    0.824001|    0.012158|
|         521|   -7.191120|   -9.225097|    0.824001|    0.012158|
|         522|   -7.192649|   -9.224858|    0.824001|    0.012158|
|         523|   -7.193992|   -9.224472|    0.824001|    0.012158|
|         524|   -7.195175|   -9.224019|    0.824001|    0.012158|
|         525|   -7.196228|   -9.223578|    0.824001|    0.012158|
|         526|   -7.197182|   -9.223228|    0.824001|    0.012158|
|         527|   -7.198070|   -9.223043|    0.824001|    0.012158|
|         528|   -7.198927|   -9.223088|    0.824001|    0.012158|
|         529|   -7.199784|   -9.223417|    0.824001|    0.012158|
|         530|   -7.200675|   -9.224074|    0.824001|    0.012158|
|         531|   -7.201631|   -9.225090|    0.824001|    0.012158|
|         532|   -7.202679|   -9.226481|    0.824001|    0.012158|
|         533|   -7.203845|   -9.228254|    0.824001|    0.012158|
|         534|   -7.205152|   -9.230401|    0.824001|    0.012158|
|         535|   -7.206618|   -9.232905|    0.824001|    0.012158|
|         536|   -7.208259|   -9.235737|    0.824001|    0.012158|
|         537|   -7.210087|   -9.238862|    0.824001|    0.012158|
|         538|   -7.212109|   -9.242236|    0.824001|    0.012158|
|         539|   -7.214328|   -9.245813|    0.824001|    0.012158|
|         540|   -7.216745|   -9.249542|    0.824001|    0.012158|
|         541|   -7.219354|   -9.253375|    0.824001|    0.012158|
|         542|   -7.222149|   -9.257264|    0.824001|    0.012158|
|         543|   -7.225118|   -9.261166|    0.824001|    0.012158|
|         544|   -7.228247|   -9.265046|    0.824001|    0.012158|
|         545|   -7.231519|   -9.268874|    0.824001|    0.012158|
|         546|   -7.234915|   -9.272633|    0.824001|    0.012158|
|         547|   -7.238414|   -9.276311|    0.824001|    0.012158|
|         548|   -7.241995|   -9.279908|    0.824001|    0.012158|
|         549|   -7.245634|   -9.283433|    0.824001|    0.012158|
|         550|   -7.249309|   -9.286898|    0.824001|    0.012158|
|         551|   -7.252996|   -9.290323|    0.824001|    0.012158|
|         552|   -7.256672|   -9.293730|    0.824001|    0.012158|
|         553|   -7.260318|   -9.297140|    0.824001|    0.012158|
|         554|   -7.263912|   -9.300572|    0.824001|    0.012158|
|         555|   -7.267438|   -9.304041|    0.824001|    0.012158|
|         556|   -7.270878|   -9.307555|    0.824001|    0.012158|
|         557|   -7.274219|   -9.311116|    0.824001|    0.012158|
|         558|   -7.277448|   -9.314714|    0.824001|    0.012158|
|         559|   -7.280555|   -9.318331|    0.824001|    0.012158|
|         560|   -7.283531|   -9.321939|    0.824001|    0.012158|
|         561|   -7.286371|   -9.325504|    0.824001|    0.012158|
|         562|   -7.289069|   -9.328980|    0.824001|    0.012158|
|         563|   -7.291620|   -9.332322|    0.824001|    0.012158|
|         564|   -7.294022|   -9.335478|    0.824001|    0.012158|
|         565|   -7.296271|   -9.338398|    0.824001|    0.012158|
|         566|   -7.298367|   -9.341038|    0.824001|    0.012158|
|         567|   -7.300308|   -9.343357|    0.824001|    0.012158|
|         568|   -7.302091|   -9.345329|    0.824001|    0.012158|
|         569|   -7.303715|   -9.346937|    0.824001|    0.012158|
|         570|   -7.305179|   -9.348180|    0.824001|    0.012158|
|         571|   -7.306481|   -9.349070|    0.824001|    0.012159|
|         572|   -7.307619|   -9.349637|    0.824001|    0.012159|
|         573|   -7.308592|   -9.349922|    0.824001|    0.012159|
|         574|   -7.309399|   -9.349976|    0.824001|    0.012159|
|         575|   -7.310041|   -9.349859|    0.824001|    0.012159|
|         576|   -7.310519|   -9.349638|    0.824001|    0.012159|
|         577|   -7.310834|   -9.349380|    0.824001|    0.012159|
|         578|   -7.310992|   -9.349151|    0.824001|    0.012159|
|         579|   -7.310999|   -9.349012|    0.824001|    0.012159|
|         580|   -7.310862|   -9.349018|    0.824001|    0.012159|
|         581|   -7.310593|   -9.349216|    0.824001|    0.012159|
|         582|   -7.310206|   -9.349642|    0.824001|    0.012159|
|         583|   -7.309715|   -9.350321|    0.824001|    0.012159|
|         584|   -7.309140|   -9.351267|    0.824001|    0.012159|
|         585|   -7.308502|   -9.352482|    0.824001|    0.012159|
|         586|   -7.307825|   -9.353956|    0.824001|    0.012159|
|         587|   -7.307133|   -9.355669|    0.824001|    0.012159|
|         588|   -7.306455|   -9.357592|    0.824001|    0.012159|
|         589|   -7.305819|   -9.359686|    0.824001|    0.012159|
|         590|   -7.305255|   -9.361906|    0.824001|    0.012159|
|         591|   -7.304792|   -9.364203|    0.824001|    0.012159|
|         592|   -7.304463|   -9.366524|    0.824001|    0.012159|
|         593|   -7.304296|   -9.368816|    0.824001|    0.012159|
|         594|   -7.304320|   -9.371029|    0.824001|    0.012159|
|         595|   -7.304565|   -9.373116|    0.824001|    0.012159|
|         596|   -7.305056|   -9.375036|    0.824001|    0.012159|
|         597|   -7.305817|   -9.376757|    0.824001|    0.012159|
|         598|   -7.306872|   -9.378256|    0.824001|    0.012159|
|         599|   -7.308239|   -9.379517|    0.824001|    0.012159|
|         600|   -7.309935|   -9.380539|    0.824001|    0.012159|
|         601|   -7.311972|   -9.381326|    0.824001|    0.012159|
+-----------------------------------------------------------------------+
|Fixed CL Mode                           |Value                         |
+-----------------------------------------------------------------------+
|Current CL                              |0.824001                      |
|Target CL                               |0.824                         |
|Previous AOA                            |2.78077                       |
|Changed AoA by                          |-3.01698e-06                  |
+-----------------------------------------------------------------------+
+----------------------------------------------------------------+
|  Inner_Iter|    rms[Rho]|     rms[nu]|          CL|          CD|
+----------------------------------------------------------------+
|         602|   -5.713813|   -9.354450|    0.824001|    0.012159|
|         603|   -6.098030|   -9.368343|    0.824001|    0.012159|
|         604|   -6.340613|   -9.372475|    0.824001|    0.012159|
|         605|   -6.417789|   -9.374647|    0.824001|    0.012159|
|         606|   -6.470065|   -9.376118|    0.824001|    0.012159|
|         607|   -6.538092|   -9.377175|    0.824000|    0.012159|
|         608|   -6.622023|   -9.377924|    0.824000|    0.012159|
|         609|   -6.709204|   -9.378430|    0.824000|    0.012159|
|         610|   -6.783857|   -9.378744|    0.824000|    0.012159|
|         611|   -6.838406|   -9.378901|    0.824000|    0.012159|
|         612|   -6.874640|   -9.378942|    0.824000|    0.012159|
|         613|   -6.896189|   -9.378927|    0.824000|    0.012159|
|         614|   -6.906561|   -9.378934|    0.824000|    0.012159|
|         615|   -6.911117|   -9.379007|    0.824000|    0.012159|
|         616|   -6.916015|   -9.379174|    0.824000|    0.012159|
|         617|   -6.925453|   -9.379444|    0.824000|    0.012159|
|         618|   -6.940440|   -9.379824|    0.824000|    0.012159|
|         619|   -6.959303|   -9.380323|    0.824000|    0.012159|
|         620|   -6.979129|   -9.380954|    0.824000|    0.012159|
|         621|   -6.997498|   -9.381721|    0.824000|    0.012159|
|         622|   -7.013650|   -9.382625|    0.824000|    0.012159|
|         623|   -7.028358|   -9.383655|    0.824000|    0.012159|
|         624|   -7.042861|   -9.384797|    0.824000|    0.012159|
|         625|   -7.057888|   -9.386038|    0.824000|    0.012159|
|         626|   -7.073351|   -9.387365|    0.824000|    0.012159|
|         627|   -7.088591|   -9.388772|    0.824000|    0.012159|
|         628|   -7.102777|   -9.390253|    0.824000|    0.012159|
|         629|   -7.115210|   -9.391804|    0.824000|    0.012159|
|         630|   -7.125467|   -9.393426|    0.824000|    0.012159|
|         631|   -7.133469|   -9.395118|    0.824000|    0.012159|
|         632|   -7.139515|   -9.396881|    0.824000|    0.012159|
|         633|   -7.144249|   -9.398719|    0.824000|    0.012159|
|         634|   -7.148529|   -9.400630|    0.824000|    0.012159|
|         635|   -7.153222|   -9.402617|    0.824000|    0.012159|
|         636|   -7.159025|   -9.404680|    0.824000|    0.012159|
|         637|   -7.166338|   -9.406817|    0.824000|    0.012159|
|         638|   -7.175232|   -9.409028|    0.824000|    0.012159|
|         639|   -7.185456|   -9.411315|    0.824000|    0.012159|
|         640|   -7.196485|   -9.413677|    0.824000|    0.012159|
|         641|   -7.207611|   -9.416117|    0.824000|    0.012159|
|         642|   -7.218086|   -9.418640|    0.824000|    0.012159|
|         643|   -7.227301|   -9.421251|    0.824000|    0.012159|
|         644|   -7.234957|   -9.423958|    0.824000|    0.012158|
|         645|   -7.241147|   -9.426769|    0.824000|    0.012158|
|         646|   -7.246313|   -9.429693|    0.824000|    0.012158|
|         647|   -7.251095|   -9.432742|    0.824000|    0.012158|
|         648|   -7.256143|   -9.435924|    0.824000|    0.012158|
|         649|   -7.261971|   -9.439249|    0.824000|    0.012158|
|         650|   -7.268865|   -9.442726|    0.824000|    0.012158|
|         651|   -7.276874|   -9.446362|    0.824000|    0.012158|
|         652|   -7.285839|   -9.450165|    0.824000|    0.012158|
|         653|   -7.295464|   -9.454143|    0.824000|    0.012158|
|         654|   -7.305391|   -9.458302|    0.824000|    0.012158|
|         655|   -7.315285|   -9.462649|    0.824000|    0.012158|
|         656|   -7.324892|   -9.467192|    0.824000|    0.012158|
|         657|   -7.334081|   -9.471941|    0.824000|    0.012158|
|         658|   -7.342842|   -9.476905|    0.824000|    0.012158|
|         659|   -7.351258|   -9.482096|    0.824000|    0.012158|
|         660|   -7.359464|   -9.487528|    0.824000|    0.012158|
|         661|   -7.367601|   -9.493219|    0.824000|    0.012158|
|         662|   -7.375786|   -9.499186|    0.824000|    0.012158|
|         663|   -7.384086|   -9.505451|    0.824000|    0.012158|
|         664|   -7.392525|   -9.512039|    0.824000|    0.012158|
|         665|   -7.401086|   -9.518973|    0.824000|    0.012158|
|         666|   -7.409729|   -9.526280|    0.824000|    0.012158|
|         667|   -7.418405|   -9.533987|    0.824000|    0.012158|
|         668|   -7.427067|   -9.542119|    0.824000|    0.012158|
|         669|   -7.435678|   -9.550698|    0.824000|    0.012158|
|         670|   -7.444211|   -9.559742|    0.824000|    0.012158|
|         671|   -7.452642|   -9.569264|    0.824000|    0.012158|
|         672|   -7.460954|   -9.579268|    0.824000|    0.012158|
|         673|   -7.469125|   -9.589748|    0.824000|    0.012158|
|         674|   -7.477126|   -9.600689|    0.824000|    0.012158|
|         675|   -7.484924|   -9.612059|    0.824000|    0.012158|
|         676|   -7.492477|   -9.623813|    0.824000|    0.012158|
|         677|   -7.499740|   -9.635889|    0.824000|    0.012158|
|         678|   -7.506669|   -9.648210|    0.824000|    0.012158|
|         679|   -7.513219|   -9.660681|    0.824000|    0.012158|
|         680|   -7.519350|   -9.673193|    0.824000|    0.012158|
|         681|   -7.525030|   -9.685624|    0.824000|    0.012158|
|         682|   -7.530233|   -9.697842|    0.824000|    0.012158|
|         683|   -7.534943|   -9.709717|    0.824000|    0.012158|
|         684|   -7.539153|   -9.721118|    0.824000|    0.012158|
|         685|   -7.542866|   -9.731930|    0.824000|    0.012159|
|         686|   -7.546093|   -9.742056|    0.824000|    0.012159|
|         687|   -7.548859|   -9.751429|    0.824000|    0.012159|
|         688|   -7.551193|   -9.760013|    0.824000|    0.012159|
|         689|   -7.553136|   -9.767809|    0.824000|    0.012159|
|         690|   -7.554735|   -9.774855|    0.824000|    0.012159|
|         691|   -7.556042|   -9.781222|    0.824000|    0.012159|
|         692|   -7.557112|   -9.787008|    0.824000|    0.012159|
|         693|   -7.558003|   -9.792333|    0.824000|    0.012159|
|         694|   -7.558773|   -9.797327|    0.824000|    0.012159|
|         695|   -7.559479|   -9.802125|    0.824000|    0.012159|
|         696|   -7.560174|   -9.806856|    0.824000|    0.012159|
|         697|   -7.560906|   -9.811642|    0.824000|    0.012159|
|         698|   -7.561722|   -9.816586|    0.824000|    0.012159|
|         699|   -7.562660|   -9.821773|    0.824000|    0.012159|
|         700|   -7.563753|   -9.827267|    0.824000|    0.012159|
|         701|   -7.565031|   -9.833110|    0.824000|    0.012159|
|         702|   -7.566512|   -9.839318|    0.824000|    0.012159|
|         703|   -7.568213|   -9.845886|    0.824000|    0.012159|
|         704|   -7.570142|   -9.852786|    0.824000|    0.012159|
|         705|   -7.572302|   -9.859969|    0.824000|    0.012159|
|         706|   -7.574688|   -9.867367|    0.824000|    0.012159|
|         707|   -7.577291|   -9.874893|    0.824000|    0.012159|
|         708|   -7.580095|   -9.882452|    0.824000|    0.012159|
|         709|   -7.583079|   -9.889935|    0.824000|    0.012159|
|         710|   -7.586216|   -9.897232|    0.824000|    0.012159|
|         711|   -7.589474|   -9.904237|    0.824000|    0.012159|
|         712|   -7.592817|   -9.910849|    0.824000|    0.012159|
|         713|   -7.596205|   -9.916985|    0.824000|    0.012159|
|         714|   -7.599595|   -9.922580|    0.824000|    0.012159|
|         715|   -7.602940|   -9.927594|    0.824000|    0.012159|
|         716|   -7.606194|   -9.932015|    0.824000|    0.012159|
|         717|   -7.609309|   -9.935858|    0.824000|    0.012159|
|         718|   -7.612239|   -9.939165|    0.824000|    0.012159|
|         719|   -7.614940|   -9.942000|    0.824000|    0.012159|
|         720|   -7.617373|   -9.944444|    0.824000|    0.012159|
|         721|   -7.619503|   -9.946593|    0.824000|    0.012159|
|         722|   -7.621301|   -9.948548|    0.824000|    0.012159|
|         723|   -7.622746|   -9.950410|    0.824000|    0.012159|
|         724|   -7.623827|   -9.952277|    0.824000|    0.012159|
|         725|   -7.624538|   -9.954238|    0.824000|    0.012159|
|         726|   -7.624886|   -9.956370|    0.824000|    0.012159|
|         727|   -7.624884|   -9.958736|    0.824000|    0.012159|
|         728|   -7.624554|   -9.961382|    0.824000|    0.012159|
|         729|   -7.623926|   -9.964337|    0.824000|    0.012159|
|         730|   -7.623036|   -9.967613|    0.824000|    0.012159|
|         731|   -7.621924|   -9.971202|    0.824000|    0.012159|
|         732|   -7.620634|   -9.975081|    0.824000|    0.012159|
|         733|   -7.619212|   -9.979205|    0.824000|    0.012159|
|         734|   -7.617705|   -9.983516|    0.824000|    0.012159|
|         735|   -7.616159|   -9.987939|    0.824000|    0.012159|
|         736|   -7.614617|   -9.992388|    0.824000|    0.012159|
|         737|   -7.613122|   -9.996766|    0.824000|    0.012159|
|         738|   -7.611711|  -10.000969|    0.824000|    0.012159|
|         739|   -7.610418|  -10.004894|    0.824000|    0.012159|
|         740|   -7.609272|  -10.008440|    0.824000|    0.012159|
|         741|   -7.608297|  -10.011518|    0.824000|    0.012159|
|         742|   -7.607513|  -10.014051|    0.824000|    0.012159|
|         743|   -7.606935|  -10.015988|    0.824000|    0.012159|
|         744|   -7.606572|  -10.017297|    0.824000|    0.012159|
|         745|   -7.606428|  -10.017979|    0.824000|    0.012159|
|         746|   -7.606505|  -10.018059|    0.824000|    0.012159|
|         747|   -7.606799|  -10.017590|    0.824000|    0.012159|
|         748|   -7.607302|  -10.016648|    0.824000|    0.012159|
|         749|   -7.608002|  -10.015327|    0.824000|    0.012159|
|         750|   -7.608884|  -10.013735|    0.824000|    0.012159|
|         751|   -7.609929|  -10.011986|    0.824000|    0.012159|
|         752|   -7.611117|  -10.010198|    0.824000|    0.012159|
|         753|   -7.612423|  -10.008482|    0.824000|    0.012159|
|         754|   -7.613821|  -10.006944|    0.824000|    0.012159|
|         755|   -7.615283|  -10.005681|    0.824000|    0.012159|
|         756|   -7.616778|  -10.004775|    0.824000|    0.012159|
|         757|   -7.618276|  -10.004294|    0.824000|    0.012159|
|         758|   -7.619745|  -10.004292|    0.824000|    0.012159|
|         759|   -7.621151|  -10.004805|    0.824000|    0.012159|
|         760|   -7.622463|  -10.005857|    0.824000|    0.012159|
|         761|   -7.623650|  -10.007454|    0.824000|    0.012159|
|         762|   -7.624681|  -10.009589|    0.824000|    0.012159|
|         763|   -7.625528|  -10.012240|    0.824000|    0.012159|
|         764|   -7.626165|  -10.015374|    0.824000|    0.012159|
|         765|   -7.626570|  -10.018946|    0.824000|    0.012159|
|         766|   -7.626722|  -10.022899|    0.824000|    0.012159|
|         767|   -7.626608|  -10.027173|    0.824000|    0.012159|
|         768|   -7.626216|  -10.031698|    0.824000|    0.012159|
|         769|   -7.625540|  -10.036404|    0.824000|    0.012159|
|         770|   -7.624580|  -10.041220|    0.824000|    0.012159|
|         771|   -7.623338|  -10.046080|    0.824000|    0.012159|
|         772|   -7.621824|  -10.050923|    0.824000|    0.012159|
|         773|   -7.620050|  -10.055698|    0.824000|    0.012159|
|         774|   -7.618034|  -10.060365|    0.824000|    0.012159|
|         775|   -7.615796|  -10.064901|    0.824000|    0.012159|
|         776|   -7.613361|  -10.069294|    0.824000|    0.012159|
|         777|   -7.610755|  -10.073550|    0.824000|    0.012159|
|         778|   -7.608008|  -10.077685|    0.824000|    0.012159|
|         779|   -7.605150|  -10.081731|    0.824000|    0.012159|
|         780|   -7.602211|  -10.085726|    0.824000|    0.012159|
|         781|   -7.599224|  -10.089715|    0.824000|    0.012159|
|         782|   -7.596219|  -10.093745|    0.824000|    0.012159|
|         783|   -7.593228|  -10.097862|    0.824000|    0.012159|
|         784|   -7.590279|  -10.102107|    0.824000|    0.012159|
|         785|   -7.587402|  -10.106512|    0.824000|    0.012159|
|         786|   -7.584623|  -10.111101|    0.824000|    0.012159|
|         787|   -7.581967|  -10.115882|    0.824000|    0.012159|
|         788|   -7.579456|  -10.120851|    0.824000|    0.012159|
|         789|   -7.577111|  -10.125987|    0.824000|    0.012159|
|         790|   -7.574951|  -10.131255|    0.824000|    0.012159|
|         791|   -7.572991|  -10.136603|    0.824000|    0.012159|
|         792|   -7.571246|  -10.141966|    0.824000|    0.012159|
|         793|   -7.569726|  -10.147266|    0.824000|    0.012159|
|         794|   -7.568441|  -10.152416|    0.824000|    0.012159|
|         795|   -7.567397|  -10.157322|    0.824000|    0.012159|
|         796|   -7.566600|  -10.161891|    0.824000|    0.012159|
|         797|   -7.566052|  -10.166031|    0.824000|    0.012159|
|         798|   -7.565751|  -10.169659|    0.824000|    0.012159|
|         799|   -7.565697|  -10.172704|    0.824000|    0.012159|
|         800|   -7.565884|  -10.175113|    0.824000|    0.012159|
|         801|   -7.566307|  -10.176852|    0.824000|    0.012159|
|         802|   -7.566956|  -10.177908|    0.824000|    0.012159|
|         803|   -7.567821|  -10.178291|    0.824000|    0.012159|
|         804|   -7.568888|  -10.178029|    0.824000|    0.012159|
|         805|   -7.570142|  -10.177166|    0.824000|    0.012159|
|         806|   -7.571567|  -10.175764|    0.824000|    0.012159|
|         807|   -7.573144|  -10.173889|    0.824000|    0.012159|
|         808|   -7.574851|  -10.171617|    0.824000|    0.012159|
|         809|   -7.576666|  -10.169021|    0.824000|    0.012159|
|         810|   -7.578564|  -10.166177|    0.824000|    0.012159|
|         811|   -7.580520|  -10.163152|    0.824000|    0.012159|
|         812|   -7.582507|  -10.160012|    0.824000|    0.012159|
|         813|   -7.584495|  -10.156810|    0.824000|    0.012159|
|         814|   -7.586457|  -10.153596|    0.824000|    0.012159|
|         815|   -7.588363|  -10.150410|    0.824000|    0.012159|
|         816|   -7.590184|  -10.147284|    0.824000|    0.012159|
|         817|   -7.591890|  -10.144243|    0.824000|    0.012159|
|         818|   -7.593454|  -10.141304|    0.824000|    0.012159|
|         819|   -7.594850|  -10.138481|    0.824000|    0.012159|
|         820|   -7.596053|  -10.135779|    0.824000|    0.012159|
|         821|   -7.597040|  -10.133198|    0.824000|    0.012159|
|         822|   -7.597792|  -10.130735|    0.824000|    0.012159|
|         823|   -7.598295|  -10.128381|    0.824000|    0.012159|
|         824|   -7.598537|  -10.126123|    0.824000|    0.012159|
|         825|   -7.598509|  -10.123945|    0.824000|    0.012159|
|         826|   -7.598208|  -10.121825|    0.824000|    0.012159|
|         827|   -7.597637|  -10.119741|    0.824000|    0.012159|
|         828|   -7.596801|  -10.117666|    0.824000|    0.012159|
|         829|   -7.595710|  -10.115572|    0.824000|    0.012159|
|         830|   -7.594378|  -10.113428|    0.824000|    0.012159|
|         831|   -7.592825|  -10.111205|    0.824000|    0.012159|
|         832|   -7.591072|  -10.108873|    0.824000|    0.012159|
|         833|   -7.589143|  -10.106402|    0.824000|    0.012159|
|         834|   -7.587066|  -10.103768|    0.824000|    0.012159|
|         835|   -7.584870|  -10.100946|    0.824000|    0.012159|
|         836|   -7.582585|  -10.097919|    0.824000|    0.012159|
|         837|   -7.580244|  -10.094675|    0.824000|    0.012159|
|         838|   -7.577877|  -10.091207|    0.824000|    0.012159|
|         839|   -7.575516|  -10.087514|    0.824000|    0.012159|
|         840|   -7.573193|  -10.083603|    0.824000|    0.012159|
|         841|   -7.570938|  -10.079485|    0.824000|    0.012159|
|         842|   -7.568780|  -10.075179|    0.824000|    0.012159|
|         843|   -7.566746|  -10.070707|    0.824000|    0.012159|
|         844|   -7.564864|  -10.066097|    0.824000|    0.012159|
|         845|   -7.563158|  -10.061379|    0.824000|    0.012159|
|         846|   -7.561651|  -10.056586|    0.824000|    0.012159|
|         847|   -7.560363|  -10.051752|    0.824000|    0.012159|
|         848|   -7.559315|  -10.046910|    0.824000|    0.012159|
|         849|   -7.558523|  -10.042093|    0.824000|    0.012159|
|         850|   -7.558003|  -10.037334|    0.824000|    0.012159|
|         851|   -7.557768|  -10.032660|    0.824000|    0.012159|
|         852|   -7.557829|  -10.028100|    0.824000|    0.012159|
|         853|   -7.558198|  -10.023677|    0.824000|    0.012159|
|         854|   -7.558881|  -10.019412|    0.824000|    0.012159|
|         855|   -7.559886|  -10.015321|    0.824000|    0.012159|
|         856|   -7.561215|  -10.011421|    0.824000|    0.012159|
|         857|   -7.562873|  -10.007721|    0.824000|    0.012159|
|         858|   -7.564859|  -10.004230|    0.824000|    0.012159|
|         859|   -7.567173|  -10.000953|    0.824000|    0.012159|
|         860|   -7.569813|   -9.997893|    0.824000|    0.012159|
|         861|   -7.572772|   -9.995051|    0.824000|    0.012159|
|         862|   -7.576043|   -9.992425|    0.824000|    0.012159|
|         863|   -7.579619|   -9.990013|    0.824000|    0.012159|
|         864|   -7.583487|   -9.987809|    0.824000|    0.012159|
|         865|   -7.587634|   -9.985807|    0.824000|    0.012159|
|         866|   -7.592043|   -9.984002|    0.824000|    0.012159|
|         867|   -7.596695|   -9.982385|    0.824000|    0.012159|
|         868|   -7.601569|   -9.980950|    0.824000|    0.012159|
|         869|   -7.606639|   -9.979687|    0.824000|    0.012159|
|         870|   -7.611878|   -9.978589|    0.824000|    0.012159|
|         871|   -7.617255|   -9.977649|    0.824000|    0.012159|
|         872|   -7.622734|   -9.976858|    0.824000|    0.012159|
|         873|   -7.628279|   -9.976211|    0.824000|    0.012159|
|         874|   -7.633849|   -9.975700|    0.824000|    0.012159|
|         875|   -7.639400|   -9.975320|    0.824000|    0.012159|
|         876|   -7.644887|   -9.975066|    0.824000|    0.012159|
|         877|   -7.650261|   -9.974934|    0.824000|    0.012159|
|         878|   -7.655473|   -9.974920|    0.824000|    0.012159|
|         879|   -7.660473|   -9.975021|    0.824000|    0.012159|
|         880|   -7.665211|   -9.975235|    0.824000|    0.012159|
|         881|   -7.669640|   -9.975560|    0.824000|    0.012159|
|         882|   -7.673713|   -9.975994|    0.824000|    0.012159|
|         883|   -7.677390|   -9.976536|    0.824000|    0.012159|
|         884|   -7.680635|   -9.977183|    0.824000|    0.012159|
|         885|   -7.683417|   -9.977935|    0.824000|    0.012159|
|         886|   -7.685716|   -9.978788|    0.824000|    0.012159|
|         887|   -7.687518|   -9.979740|    0.824000|    0.012159|
|         888|   -7.688818|   -9.980789|    0.824000|    0.012159|
|         889|   -7.689621|   -9.981928|    0.824000|    0.012159|
|         890|   -7.689942|   -9.983154|    0.824000|    0.012159|
|         891|   -7.689802|   -9.984460|    0.824000|    0.012159|
|         892|   -7.689233|   -9.985839|    0.824000|    0.012159|
|         893|   -7.688272|   -9.987283|    0.824000|    0.012159|
|         894|   -7.686963|   -9.988783|    0.824000|    0.012159|
|         895|   -7.685354|   -9.990328|    0.824000|    0.012159|
|         896|   -7.683497|   -9.991909|    0.824000|    0.012159|
|         897|   -7.681443|   -9.993515|    0.824000|    0.012159|
|         898|   -7.679249|   -9.995134|    0.824000|    0.012159|
|         899|   -7.676966|   -9.996754|    0.824000|    0.012159|
|         900|   -7.674648|   -9.998365|    0.824000|    0.012159|
|         901|   -7.672345|   -9.999955|    0.824000|    0.012159|
|         902|   -7.670105|  -10.001516|    0.824000|    0.012159|
|         903|   -7.667973|  -10.003038|    0.824000|    0.012159|
|         904|   -7.665991|  -10.004514|    0.824000|    0.012159|
|         905|   -7.664197|  -10.005937|    0.824000|    0.012159|
|         906|   -7.662626|  -10.007303|    0.824000|    0.012159|
|         907|   -7.661311|  -10.008610|    0.824000|    0.012159|
|         908|   -7.660277|  -10.009855|    0.824000|    0.012159|
|         909|   -7.659551|  -10.011041|    0.824000|    0.012159|
|         910|   -7.659154|  -10.012170|    0.824000|    0.012159|
|         911|   -7.659103|  -10.013244|    0.824000|    0.012159|
|         912|   -7.659416|  -10.014271|    0.824000|    0.012159|
|         913|   -7.660103|  -10.015255|    0.824000|    0.012159|
|         914|   -7.661176|  -10.016204|    0.824000|    0.012159|
|         915|   -7.662643|  -10.017126|    0.824000|    0.012159|
|         916|   -7.664507|  -10.018029|    0.824000|    0.012159|
|         917|   -7.666773|  -10.018921|    0.824000|    0.012159|
|         918|   -7.669440|  -10.019810|    0.824000|    0.012159|
|         919|   -7.672506|  -10.020702|    0.824000|    0.012159|
|         920|   -7.675969|  -10.021605|    0.824000|    0.012159|
|         921|   -7.679820|  -10.022523|    0.824000|    0.012159|
|         922|   -7.684052|  -10.023462|    0.824000|    0.012159|
|         923|   -7.688653|  -10.024424|    0.824000|    0.012159|
|         924|   -7.693610|  -10.025412|    0.824000|    0.012159|
|         925|   -7.698907|  -10.026425|    0.824000|    0.012159|
|         926|   -7.704524|  -10.027463|    0.824000|    0.012159|
|         927|   -7.710440|  -10.028524|    0.824000|    0.012159|
|         928|   -7.716630|  -10.029604|    0.824000|    0.012159|
|         929|   -7.723065|  -10.030700|    0.824000|    0.012159|
|         930|   -7.729716|  -10.031805|    0.824000|    0.012159|
|         931|   -7.736546|  -10.032914|    0.824000|    0.012159|
|         932|   -7.743519|  -10.034019|    0.824000|    0.012159|
|         933|   -7.750593|  -10.035114|    0.824000|    0.012159|
|         934|   -7.757724|  -10.036189|    0.824000|    0.012159|
|         935|   -7.764863|  -10.037238|    0.824000|    0.012159|
|         936|   -7.771962|  -10.038253|    0.824000|    0.012159|
|         937|   -7.778968|  -10.039225|    0.824000|    0.012159|
|         938|   -7.785826|  -10.040148|    0.824000|    0.012159|
|         939|   -7.792482|  -10.041014|    0.824000|    0.012159|
|         940|   -7.798881|  -10.041817|    0.824000|    0.012159|
|         941|   -7.804971|  -10.042553|    0.824000|    0.012159|
|         942|   -7.810700|  -10.043215|    0.824000|    0.012159|
|         943|   -7.816022|  -10.043801|    0.824000|    0.012159|
[...]
|        5298|   -6.042642|   -7.934889|    0.824237|    0.012163|
|        5299|   -6.049166|   -7.939172|    0.824237|    0.012163|
|        5300|   -6.055350|   -7.943521|    0.824237|    0.012163|
|        5301|   -6.061158|   -7.947951|    0.824237|    0.012163|
|        5302|   -6.066561|   -7.952474|    0.824237|    0.012163|
|        5303|   -6.071543|   -7.957096|    0.824237|    0.012163|
|        5304|   -6.076097|   -7.961822|    0.824238|    0.012162|
|        5305|   -6.080224|   -7.966658|    0.824238|    0.012162|
|        5306|   -6.083937|   -7.971611|    0.824238|    0.012162|
|        5307|   -6.087260|   -7.976678|    0.824238|    0.012162|
|        5308|   -6.090220|   -7.981858|    0.824238|    0.012162|
|        5309|   -6.092858|   -7.987148|    0.824238|    0.012162|
|        5310|   -6.095214|   -7.992543|    0.824238|    0.012162|
|        5311|   -6.097337|   -7.998039|    0.824238|    0.012162|
|        5312|   -6.099276|   -8.003630|    0.824238|    0.012162|
|        5313|   -6.101080|   -8.009311|    0.824238|    0.012162|
|        5314|   -6.102800|   -8.015080|    0.824239|    0.012162|
|        5315|   -6.104483|   -8.020931|    0.824239|    0.012162|
|        5316|   -6.106175|   -8.026862|    0.824239|    0.012162|
|        5317|   -6.107917|   -8.032872|    0.824239|    0.012162|
|        5318|   -6.109745|   -8.038957|    0.824239|    0.012163|
|        5319|   -6.111691|   -8.045119|    0.824239|    0.012163|
|        5320|   -6.113782|   -8.051356|    0.824239|    0.012163|
|        5321|   -6.116037|   -8.057668|    0.824240|    0.012163|
|        5322|   -6.118470|   -8.064055|    0.824240|    0.012163|
|        5323|   -6.121090|   -8.070516|    0.824240|    0.012163|
|        5324|   -6.123897|   -8.077049|    0.824240|    0.012163|
|        5325|   -6.126886|   -8.083654|    0.824240|    0.012163|
|        5326|   -6.130047|   -8.090326|    0.824240|    0.012163|
|        5327|   -6.133363|   -8.097061|    0.824241|    0.012163|
|        5328|   -6.136812|   -8.103855|    0.824241|    0.012163|
|        5329|   -6.140367|   -8.110702|    0.824241|    0.012163|
|        5330|   -6.143996|   -8.117592|    0.824241|    0.012163|
|        5331|   -6.147664|   -8.124519|    0.824241|    0.012164|
|        5332|   -6.151335|   -8.131473|    0.824241|    0.012164|
|        5333|   -6.154968|   -8.138444|    0.824242|    0.012164|
|        5334|   -6.158525|   -8.145422|    0.824242|    0.012164|
|        5335|   -6.161968|   -8.152397|    0.824242|    0.012164|
|        5336|   -6.165260|   -8.159360|    0.824242|    0.012164|
|        5337|   -6.168370|   -8.166304|    0.824242|    0.012164|
|        5338|   -6.171269|   -8.173222|    0.824242|    0.012164|
|        5339|   -6.173936|   -8.180104|    0.824242|    0.012164|
|        5340|   -6.176357|   -8.186945|    0.824243|    0.012164|
|        5341|   -6.178528|   -8.193741|    0.824243|    0.012164|
|        5342|   -6.180448|   -8.200492|    0.824243|    0.012164|
|        5343|   -6.182129|   -8.207201|    0.824243|    0.012165|
|        5344|   -6.183586|   -8.213873|    0.824243|    0.012165|
|        5345|   -6.184845|   -8.220517|    0.824243|    0.012165|
|        5346|   -6.185936|   -8.227143|    0.824243|    0.012165|
|        5347|   -6.186894|   -8.233762|    0.824243|    0.012165|
|        5348|   -6.187758|   -8.240387|    0.824243|    0.012165|
|        5349|   -6.188570|   -8.247031|    0.824244|    0.012165|
|        5350|   -6.189373|   -8.253708|    0.824244|    0.012165|
|        5351|   -6.190212|   -8.260429|    0.824244|    0.012165|
|        5352|   -6.191127|   -8.267206|    0.824244|    0.012165|
|        5353|   -6.192161|   -8.274050|    0.824244|    0.012165|
|        5354|   -6.193352|   -8.280970|    0.824244|    0.012165|
|        5355|   -6.194734|   -8.287971|    0.824244|    0.012165|
|        5356|   -6.196341|   -8.295061|    0.824244|    0.012165|
|        5357|   -6.198198|   -8.302242|    0.824244|    0.012165|
|        5358|   -6.200331|   -8.309517|    0.824244|    0.012165|
|        5359|   -6.202757|   -8.316886|    0.824244|    0.012165|
|        5360|   -6.205490|   -8.324347|    0.824244|    0.012165|
|        5361|   -6.208541|   -8.331892|    0.824244|    0.012165|
|        5362|   -6.211914|   -8.339517|    0.824244|    0.012165|
|        5363|   -6.215609|   -8.347216|    0.824244|    0.012165|
|        5364|   -6.219620|   -8.354980|    0.824244|    0.012165|
|        5365|   -6.223938|   -8.362802|    0.824244|    0.012165|
|        5366|   -6.228548|   -8.370672|    0.824244|    0.012165|
|        5367|   -6.233430|   -8.378578|    0.824244|    0.012165|
|        5368|   -6.238560|   -8.386512|    0.824244|    0.012165|
|        5369|   -6.243909|   -8.394461|    0.824244|    0.012165|
|        5370|   -6.249445|   -8.402410|    0.824244|    0.012165|
|        5371|   -6.255130|   -8.410343|    0.824244|    0.012165|
|        5372|   -6.260924|   -8.418243|    0.824244|    0.012165|
|        5373|   -6.266783|   -8.426097|    0.824244|    0.012165|
|        5374|   -6.272662|   -8.433887|    0.824244|    0.012165|
|        5375|   -6.278512|   -8.441598|    0.824244|    0.012165|
|        5376|   -6.284286|   -8.449216|    0.824244|    0.012165|
|        5377|   -6.289935|   -8.456727|    0.824244|    0.012165|
|        5378|   -6.295412|   -8.464117|    0.824244|    0.012165|
|        5379|   -6.300674|   -8.471376|    0.824244|    0.012165|
|        5380|   -6.305680|   -8.478494|    0.824244|    0.012164|
|        5381|   -6.310395|   -8.485459|    0.824244|    0.012164|
|        5382|   -6.314786|   -8.492266|    0.824244|    0.012164|
|        5383|   -6.318832|   -8.498904|    0.824244|    0.012164|
|        5384|   -6.322514|   -8.505368|    0.824244|    0.012164|
|        5385|   -6.325822|   -8.511650|    0.824244|    0.012164|
|        5386|   -6.328753|   -8.517741|    0.824244|    0.012164|
|        5387|   -6.331310|   -8.523634|    0.824245|    0.012164|
|        5388|   -6.333503|   -8.529317|    0.824245|    0.012164|
|        5389|   -6.335347|   -8.534777|    0.824245|    0.012164|
|        5390|   -6.336861|   -8.540000|    0.824245|    0.012164|
|        5391|   -6.338067|   -8.544967|    0.824245|    0.012164|
|        5392|   -6.338989|   -8.549659|    0.824245|    0.012163|
|        5393|   -6.339654|   -8.554051|    0.824245|    0.012163|
|        5394|   -6.340088|   -8.558120|    0.824245|    0.012163|
|        5395|   -6.340317|   -8.561836|    0.824245|    0.012163|
|        5396|   -6.340365|   -8.565173|    0.824246|    0.012163|
|        5397|   -6.340256|   -8.568102|    0.824246|    0.012163|
|        5398|   -6.340010|   -8.570598|    0.824246|    0.012163|
|        5399|   -6.339646|   -8.572638|    0.824246|    0.012163|
|        5400|   -6.339181|   -8.574204|    0.824246|    0.012163|
|        5401|   -6.338629|   -8.575283|    0.824247|    0.012163|
|        5402|   -6.338003|   -8.575865|    0.824247|    0.012162|
|        5403|   -6.337312|   -8.575950|    0.824247|    0.012162|
|        5404|   -6.336564|   -8.575545|    0.824247|    0.012162|
|        5405|   -6.335768|   -8.574665|    0.824247|    0.012162|
|        5406|   -6.334928|   -8.573332|    0.824248|    0.012162|
|        5407|   -6.334049|   -8.571576|    0.824248|    0.012162|
|        5408|   -6.333136|   -8.569435|    0.824248|    0.012162|
|        5409|   -6.332192|   -8.566949|    0.824248|    0.012162|
|        5410|   -6.331221|   -8.564164|    0.824248|    0.012162|
|        5411|   -6.330226|   -8.561128|    0.824249|    0.012162|
|        5412|   -6.329210|   -8.557894|    0.824249|    0.012162|
|        5413|   -6.328177|   -8.554511|    0.824249|    0.012162|
|        5414|   -6.327130|   -8.551028|    0.824249|    0.012162|
|        5415|   -6.326075|   -8.547488|    0.824250|    0.012161|
|        5416|   -6.325016|   -8.543931|    0.824250|    0.012161|
|        5417|   -6.323957|   -8.540392|    0.824250|    0.012161|
|        5418|   -6.322905|   -8.536901|    0.824250|    0.012161|
|        5419|   -6.321867|   -8.533484|    0.824250|    0.012161|
|        5420|   -6.320849|   -8.530161|    0.824251|    0.012161|
|        5421|   -6.319858|   -8.526949|    0.824251|    0.012161|
|        5422|   -6.318905|   -8.523859|    0.824251|    0.012161|
|        5423|   -6.317997|   -8.520901|    0.824251|    0.012161|
|        5424|   -6.317144|   -8.518079|    0.824251|    0.012161|
|        5425|   -6.316358|   -8.515396|    0.824251|    0.012161|
|        5426|   -6.315649|   -8.512851|    0.824252|    0.012161|
|        5427|   -6.315031|   -8.510441|    0.824252|    0.012161|
|        5428|   -6.314515|   -8.508164|    0.824252|    0.012161|
|        5429|   -6.314115|   -8.506013|    0.824252|    0.012161|
|        5430|   -6.313846|   -8.503984|    0.824252|    0.012161|
|        5431|   -6.313721|   -8.502070|    0.824252|    0.012161|
|        5432|   -6.313754|   -8.500266|    0.824252|    0.012161|
|        5433|   -6.313961|   -8.498565|    0.824252|    0.012161|
|        5434|   -6.314355|   -8.496962|    0.824253|    0.012161|
|        5435|   -6.314952|   -8.495452|    0.824253|    0.012161|
|        5436|   -6.315764|   -8.494032|    0.824253|    0.012161|
|        5437|   -6.316804|   -8.492697|    0.824253|    0.012161|
|        5438|   -6.318084|   -8.491445|    0.824253|    0.012161|
|        5439|   -6.319616|   -8.490274|    0.824253|    0.012161|
|        5440|   -6.321407|   -8.489183|    0.824253|    0.012161|
|        5441|   -6.323466|   -8.488172|    0.824253|    0.012161|
|        5442|   -6.325799|   -8.487241|    0.824253|    0.012161|
|        5443|   -6.328408|   -8.486389|    0.824253|    0.012161|
|        5444|   -6.331295|   -8.485618|    0.824253|    0.012162|
|        5445|   -6.334458|   -8.484927|    0.824253|    0.012162|
|        5446|   -6.337893|   -8.484317|    0.824253|    0.012162|
|        5447|   -6.341592|   -8.483788|    0.824254|    0.012162|
|        5448|   -6.345545|   -8.483341|    0.824254|    0.012162|
|        5449|   -6.349738|   -8.482976|    0.824254|    0.012162|
|        5450|   -6.354152|   -8.482692|    0.824254|    0.012162|
|        5451|   -6.358768|   -8.482489|    0.824254|    0.012162|
|        5452|   -6.363560|   -8.482365|    0.824254|    0.012162|
|        5453|   -6.368499|   -8.482319|    0.824254|    0.012162|
|        5454|   -6.373554|   -8.482349|    0.824254|    0.012162|
|        5455|   -6.378689|   -8.482452|    0.824254|    0.012162|
|        5456|   -6.383866|   -8.482626|    0.824254|    0.012162|
|        5457|   -6.389044|   -8.482869|    0.824254|    0.012163|
|        5458|   -6.394178|   -8.483177|    0.824253|    0.012163|
|        5459|   -6.399225|   -8.483548|    0.824253|    0.012163|
|        5460|   -6.404139|   -8.483977|    0.824253|    0.012163|
|        5461|   -6.408873|   -8.484463|    0.824253|    0.012163|
|        5462|   -6.413384|   -8.485001|    0.824253|    0.012163|
|        5463|   -6.417630|   -8.485587|    0.824253|    0.012163|
|        5464|   -6.421571|   -8.486219|    0.824253|    0.012163|
|        5465|   -6.425173|   -8.486891|    0.824253|    0.012163|
|        5466|   -6.428407|   -8.487602|    0.824253|    0.012163|
|        5467|   -6.431250|   -8.488346|    0.824253|    0.012163|
|        5468|   -6.433686|   -8.489119|    0.824253|    0.012163|
|        5469|   -6.435706|   -8.489917|    0.824253|    0.012163|
|        5470|   -6.437310|   -8.490737|    0.824253|    0.012163|
|        5471|   -6.438502|   -8.491573|    0.824253|    0.012164|
|        5472|   -6.439298|   -8.492420|    0.824252|    0.012164|
|        5473|   -6.439718|   -8.493273|    0.824252|    0.012164|
|        5474|   -6.439787|   -8.494128|    0.824252|    0.012164|
|        5475|   -6.439535|   -8.494978|    0.824252|    0.012164|
|        5476|   -6.438999|   -8.495819|    0.824252|    0.012164|
|        5477|   -6.438216|   -8.496643|    0.824252|    0.012164|
|        5478|   -6.437224|   -8.497445|    0.824252|    0.012164|
|        5479|   -6.436066|   -8.498219|    0.824252|    0.012164|
|        5480|   -6.434780|   -8.498958|    0.824252|    0.012164|
|        5481|   -6.433407|   -8.499658|    0.824252|    0.012164|
|        5482|   -6.431985|   -8.500311|    0.824251|    0.012164|
|        5483|   -6.430551|   -8.500913|    0.824251|    0.012164|
|        5484|   -6.429139|   -8.501457|    0.824251|    0.012164|
|        5485|   -6.427781|   -8.501940|    0.824251|    0.012164|
|        5486|   -6.426505|   -8.502357|    0.824251|    0.012164|
|        5487|   -6.425338|   -8.502705|    0.824251|    0.012164|
|        5488|   -6.424303|   -8.502979|    0.824251|    0.012164|
|        5489|   -6.423421|   -8.503178|    0.824251|    0.012164|
|        5490|   -6.422709|   -8.503299|    0.824251|    0.012164|
|        5491|   -6.422183|   -8.503342|    0.824251|    0.012164|
|        5492|   -6.421856|   -8.503306|    0.824251|    0.012164|
|        5493|   -6.421737|   -8.503191|    0.824250|    0.012164|
|        5494|   -6.421835|   -8.502999|    0.824250|    0.012164|
|        5495|   -6.422156|   -8.502730|    0.824250|    0.012164|
|        5496|   -6.422704|   -8.502387|    0.824250|    0.012164|
|        5497|   -6.423482|   -8.501972|    0.824250|    0.012164|
|        5498|   -6.424491|   -8.501489|    0.824250|    0.012164|
|        5499|   -6.425730|   -8.500939|    0.824251|    0.012149|
+-----------------------------------------------------------------------+
|Fixed CL Mode (Finite Difference)       |Value                         |
+-----------------------------------------------------------------------+
|Delta CL / Delta AoA                    |0.250126                      |
|Delta CD / Delta CL                     |0.0204711                     |
|Delta CMz / Delta CL                    |0.0157111                     |
+-----------------------------------------------------------------------+
Writing Flow Meta-Data file: flow.meta

----------------------------- Solver Exit -------------------------------

Maximum number of iterations reached (ITER = 5500) before convergence.
+-----------------------------------------------------------------------+
|      Convergence Field     |     Value    |   Criterion  |  Converged |
+-----------------------------------------------------------------------+
|                    rms[Rho]|      -6.42573|         < -12|          No|
+-----------------------------------------------------------------------+
-------------------------------------------------------------------------

--------------------------- Finalizing Solver ---------------------------
Deleted CNumerics container.
Deleted CIntegration container.
Deleted CSolver container.
Deleted CIteration container.
Deleted CInterface container.
Deleted CGeometry container.
Deleted CFreeFormDefBox class.
Deleted CSurfaceMovement class.
Deleted CVolumetricMovement class.
Deleted CConfig container.
Deleted nInst container.
Deleted COutput class.
-------------------------------------------------------------------------

------------------------- Exit Success (SU2_CFD) ------------------------


-------------------------------------------------------------------------
|    ___ _   _ ___                                                      |
|   / __| | | |_  )   Release 8.0.0 "Harrier"                           |
|   \__ \ |_| |/ /                                                      |
|   |___/\___//___|   Suite (Solution Exporting Code)                   |
|                                                                       |
-------------------------------------------------------------------------
| SU2 Project Website: https://su2code.github.io                        |
|                                                                       |
| The SU2 Project is maintained by the SU2 Foundation                   |
| (http://su2foundation.org)                                            |
-------------------------------------------------------------------------
| Copyright 2012-2023, SU2 Contributors                                 |
|                                                                       |
| SU2 is free software; you can redistribute it and/or                  |
| modify it under the terms of the GNU Lesser General Public            |
| License as published by the Free Software Foundation; either          |
| version 2.1 of the License, or (at your option) any later version.    |
|                                                                       |
| SU2 is distributed in the hope that it will be useful,                |
| but WITHOUT ANY WARRANTY; without even the implied warranty of        |
| MERCHANTABILITY or FITNESS FOR A PARTICULAR PURPOSE. See the GNU      |
| Lesser General Public License for more details.                       |
|                                                                       |
| You should have received a copy of the GNU Lesser General Public      |
| License along with SU2. If not, see <http://www.gnu.org/licenses/>.   |
-------------------------------------------------------------------------

----------------- Physical Case Definition ( Zone 0 ) -------------------
Input mesh file name: mesh_RAE2822_turb_deform.su2

-------------------- Output Information ( Zone 0 ) ----------------------
The tabular file format is CSV (.csv).
Flow variables file name: flow.

------------- Config File Boundary Information ( Zone 0 ) ---------------
+-----------------------------------------------------------------------+
|                        Marker Type|                        Marker Name|
+-----------------------------------------------------------------------+
|                          Far-field|                           FARFIELD|
+-----------------------------------------------------------------------+
|                     Heat flux wall|                            AIRFOIL|
+-----------------------------------------------------------------------+
Two dimensional problem.
13937 grid points before partitioning.
22842 volume elements before partitioning.
2 surface markers.
192 boundary elements in index 0 (Marker = AIRFOIL).
40 boundary elements in index 1 (Marker = FARFIELD).
Executing the partitioning functions.
Building the graph adjacency structure.
Calling ParMETIS... graph partitioning complete (831 edge cuts).
Distributing ParMETIS coloring.
Rebalancing vertices.
Rebalancing volume element connectivity.
Rebalancing markers and surface elements.
14875 vertices including ghost points. 
23674 interior elements including halo cells. 
18780 triangles.
4894 quadrilaterals.
Establishing MPI communication patterns.
Identify vertices.
Storing a mapping from global to local point index.

------------------------- Solution Postprocessing -----------------------
Reading and storing the solution from restart_flow.
Volume output fields: COORDINATES, SOLUTION
  Info: Ignoring the following screen output fields:
  RMS_DENSITY, RMS_NU_TILDE, LIFT, DRAG
Screen output fields: INNER_ITER
  Info: Ignoring the following history output groups:
  RMS_RES, AERO_COEFF
History output group(s): ITER
Warning: No (valid) fields chosen for convergence monitoring. Convergence monitoring inactive.
Warning: No (valid) fields chosen for time convergence monitoring. Time convergence monitoring inactive.
|Paraview                           |flow.vtu                           |
|Paraview surface                   |surface_flow.vtu                   |
|CSV file                           |surface_flow.csv                   |

------------------------- Finalize Solver -------------------------
Deleted CGeometry container.
Deleted CSolver class.
Deleted CConfig container.
Deleted COutput class.

Completed in 0.020063 seconds on 6 cores.

------------------------- Exit Success (SU2_SOL) ------------------------

