
-------------------------------------------------------------------------
|    ___ _   _ ___                                                      |
|   / __| | | |_  )   Release 8.0.0 "Harrier"                           |
|   \__ \ |_| |/ /                                                      |
|   |___/\___//___|   Suite (Computational Fluid Dynamics Code)         |
|                                                                       |
-------------------------------------------------------------------------
| SU2 Project Website: https://su2code.github.io                        |
|                                                                       |
| The SU2 Project is maintained by the SU2 Foundation                   |
| (http://su2foundation.org)                                            |
-------------------------------------------------------------------------
| Copyright 2012-2023, SU2 Contributors                                 |
|                                                                       |
| SU2 is free software; you can redistribute it and/or                  |
| modify it under the terms of the GNU Lesser General Public            |
| License as published by the Free Software Foundation; either          |
| version 2.1 of the License, or (at your option) any later version.    |
|                                                                       |
| SU2 is distributed in the hope that it will be useful,                |
| but WITHOUT ANY WARRANTY; without even the implied warranty of        |
| MERCHANTABILITY or FITNESS FOR A PARTICULAR PURPOSE. See the GNU      |
| Lesser General Public License for more details.                       |
|                                                                       |
| You should have received a copy of the GNU Lesser General Public      |
| License along with SU2. If not, see <http://www.gnu.org/licenses/>.   |
-------------------------------------------------------------------------

Parsing config file for zone 0

----------------- Physical Case Definition ( Zone 0 ) -------------------
Compressible RANS equations.
Turbulence model: Spalart-Allmaras-noft2
Hybrid RANS/LES: No Hybrid RANS/LES
Mach number: 0.734.
Angle of attack (AoA): 2.31 deg, and angle of sideslip (AoS): 0 deg.
Reynolds number: 6.5e+06. Reference length 1.
Fixed CL mode, target value: 0.824.
Reading and writing binary SU2 native restart files.
Read flow solution from: solution_flow.dat.
Dimensional simulation.
The reference area is 1 m^2.
The semi-span will be computed using the max y(3D) value.
The reference length is 1 m.
Reference origin for moment evaluation is (0.25, 0, 0).
Surface(s) where the force coefficients are evaluated: AIRFOIL.

Surface(s) plotted in the output file: AIRFOIL.
Surface(s) affected by the design variables: AIRFOIL.
Input mesh file name: mesh_RAE2822_turb_deform.su2

--------------- Space Numerical Integration ( Zone 0 ) ------------------
Jameson-Schmidt-Turkel scheme (2nd order in space) for the flow inviscid terms.
JST viscous coefficients (2nd & 4th): 0.5, 0.02.
The method includes a grid stretching correction (p = 0.3).
Scalar upwind solver for the turbulence model.
First order integration in space.
Average of gradients with correction (viscous flow terms).
Average of gradients with correction (viscous turbulence terms).
Gradient for viscous and source terms: inverse-distance weighted Least-Squares.

--------------- Time Numerical Integration  ( Zone 0 ) ------------------
Local time stepping (steady state simulation).
Euler implicit method for the flow equations.
FGMRES is used for solving the linear system.
Using a ILU(0) preconditioning.
Convergence criteria of the linear solver: 1e-06.
Max number of linear iterations: 10.
No CFL adaptation.
Courant-Friedrichs-Lewy number:       10
Euler implicit time integration for the turbulence model.

------------------ Convergence Criteria  ( Zone 0 ) ---------------------
Maximum number of solver subiterations: 5500.
Begin convergence monitoring at iteration 10.
Residual minimum value: 1e-12.
Cauchy series min. value: 1e-06.
Number of Cauchy elements: 100.
Begin windowed time average at iteration 0.

-------------------- Output Information ( Zone 0 ) ----------------------
File writing frequency: 
+------------------------------------+
|                     File| Frequency|
+------------------------------------+
|                  RESTART|     10000|
|                 PARAVIEW|     10000|
|         SURFACE_PARAVIEW|     10000|
|              SURFACE_CSV|     10000|
+------------------------------------+
Writing the convergence history file every 1 inner iterations.
Writing the screen convergence history every 1 inner iterations.
The tabular file format is CSV (.csv).
Convergence history file name: history_direct.
Forces breakdown file name: forces_breakdown.dat.
Surface file name: surface_flow.
Volume file name: flow.
Restart file name: restart_flow.dat.

------------- Config File Boundary Information ( Zone 0 ) ---------------
+-----------------------------------------------------------------------+
|                        Marker Type|                        Marker Name|
+-----------------------------------------------------------------------+
|                          Far-field|                           FARFIELD|
+-----------------------------------------------------------------------+
|                     Heat flux wall|                            AIRFOIL|
+-----------------------------------------------------------------------+

-------------------- Output Preprocessing ( Zone 0 ) --------------------

WARNING: SURFACE_PRESSURE_DROP can only be computed for at least 2 surfaces (outlet, inlet, ...)

Screen output fields: INNER_ITER, RMS_DENSITY, RMS_NU_TILDE, LIFT, DRAG
History output group(s): ITER, RMS_RES, AERO_COEFF
Convergence field(s): RMS_DENSITY
Warning: No (valid) fields chosen for time convergence monitoring. Time convergence monitoring inactive.
Volume output fields: COORDINATES, SOLUTION, PRIMITIVE

------------------- Geometry Preprocessing ( Zone 0 ) -------------------
Two dimensional problem.
13937 grid points before partitioning.
22842 volume elements before partitioning.
2 surface markers.
192 boundary elements in index 0 (Marker = AIRFOIL).
40 boundary elements in index 1 (Marker = FARFIELD).
Executing the partitioning functions.
Building the graph adjacency structure.
Calling ParMETIS... graph partitioning complete (831 edge cuts).
Distributing ParMETIS coloring.
Rebalancing vertices.
Rebalancing volume element connectivity.
Rebalancing markers and surface elements.
14875 vertices including ghost points. 
23674 interior elements including halo cells. 
18780 triangles.
4894 quadrilaterals.
Establishing MPI communication patterns.
Setting point connectivity.
Renumbering points (Reverse Cuthill McKee Ordering).
Recomputing point connectivity.
Setting element connectivity.
Checking the numerical grid orientation.
All volume elements are correctly orientend.
All surface elements are correctly orientend.
Identifying edges and vertices.
Setting the control volume structure.
Area of the computational grid: 32209.9.
Searching for the closest normal neighbors to the surfaces.
Storing a mapping from global to local point index.
Compute the surface curvature.
Max K: 158.88. Mean K: 7.31546. Standard deviation K: 21.7285.
Checking for periodicity.
Computing mesh quality statistics for the dual control volumes.
+--------------------------------------------------------------+
|           Mesh Quality Metric|        Minimum|        Maximum|
+--------------------------------------------------------------+
|    Orthogonality Angle (deg.)|        75.2882|         89.999|
|     CV Face Area Aspect Ratio|         1.0016|        3358.35|
|           CV Sub-Volume Ratio|        1.00061|        1210.74|
+--------------------------------------------------------------+
Finding max control volume width.
Communicating number of neighbors.
Wetted area = 2.02336 m.
Area projection in the x-plane = 0.12389 m, y-plane = 0.995873 m.
Max. coordinate in the x-direction = 1 m, y-direction = 0.0635976 m.
Min. coordinate in the x-direction = 0 m, y-direction = -0.0593596 m.
Computing wall distances.

-------------------- Solver Preprocessing ( Zone 0 ) --------------------
WARNING: AoA in the solution file (2.78114 deg.) +
         AoA offset in mesh file (0 deg.) = 2.78114 deg.
WARNING: SU2 will use the dCD/dCL provided in the direct solution file: 0.0190773.
WARNING: SU2 will use the dCMz/dCL provided in the direct solution file: -0.000380106.
Viscous flow: Computing pressure using the ideal gas law
based on the free-stream temperature and a density computed
from the Reynolds number.
Force coefficients computed using free-stream values.

-- Models:
+------------------------------------------------------------------------------+
|          Viscosity Model|        Conductivity Model|              Fluid Model|
+------------------------------------------------------------------------------+
|               SUTHERLAND|          CONSTANT_PRANDTL|             STANDARD_AIR|
+------------------------------------------------------------------------------+
-- Fluid properties:
+------------------------------------------------------------------------------+
|                  Name|    Dim. value|    Ref. value|      Unit|Non-dim. value|
+------------------------------------------------------------------------------+
|        Ref. Viscosity|     1.716e-05|             1|   N.s/m^2|     1.716e-05|
|      Sutherland Temp.|        273.15|             1|         K|        273.15|
|     Sutherland Const.|         110.4|             1|         K|         110.4|
+------------------------------------------------------------------------------+
|        Prandtl (Lam.)|             -|             -|         -|          0.71|
|       Prandtl (Turb.)|             -|             -|         -|           0.9|
+------------------------------------------------------------------------------+
|          Gas Constant|       287.058|             1|  N.m/kg.K|       287.058|
|      Spec. Heat Ratio|             -|             -|         -|           1.4|
+------------------------------------------------------------------------------+
-- Initial and free-stream conditions:
+------------------------------------------------------------------------------+
|                  Name|    Dim. value|    Ref. value|      Unit|Non-dim. value|
+------------------------------------------------------------------------------+
|       Static Pressure|         38515|             1|        Pa|         38515|
|               Density|      0.465631|             1|    kg/m^3|      0.465631|
|           Temperature|        288.15|             1|         K|        288.15|
|          Total Energy|        237984|             1|   m^2/s^2|        237984|
|            Velocity-X|       249.484|             1|       m/s|       249.484|
|            Velocity-Y|       12.1195|             1|       m/s|       12.1195|
|    Velocity Magnitude|       249.778|             1|       m/s|       249.778|
+------------------------------------------------------------------------------+
|             Viscosity|    1.7893e-05|             1|   N.s/m^2|    1.7893e-05|
|          Conductivity|             -|             1|   W/m^2.K|             -|
|     Turb. Kin. Energy|       233.959|             1|   m^2/s^2|       233.959|
|     Spec. Dissipation|        608834|             1|       1/s|        608834|
+------------------------------------------------------------------------------+
|           Mach Number|             -|             -|         -|         0.734|
|       Reynolds Number|             -|             -|         -|       6.5e+06|
+------------------------------------------------------------------------------+
Initialize Jacobian structure (Navier-Stokes). MG level: 0.
Initialize Jacobian structure (SA model).

------------------- Numerics Preprocessing ( Zone 0 ) -------------------

----------------- Integration Preprocessing ( Zone 0 ) ------------------

------------------- Iteration Preprocessing ( Zone 0 ) ------------------
Euler/Navier-Stokes/RANS fluid iteration.

------------------------------ Begin Solver -----------------------------

Simulation Run using the Single-zone Driver
WARNING: SU2 was not compiled for an AVX-capable architecture. Performance could be better,
         see https://su2code.github.io/docs_v7/Build-SU2-Linux-MacOS/#compiler-optimizations
+----------------------------------------------------------------+
|  Inner_Iter|    rms[Rho]|     rms[nu]|          CL|          CD|
+----------------------------------------------------------------+
|           0|   -6.160775|   -7.383928|    0.824002|    0.012158|
|           1|   -6.210119|   -7.474013|    0.824003|    0.012157|
|           2|   -6.260844|   -7.582958|    0.824004|    0.012157|
|           3|   -6.294787|   -7.708383|    0.824004|    0.012156|
|           4|   -6.313106|   -7.847250|    0.824004|    0.012156|
|           5|   -6.321367|   -7.982997|    0.824004|    0.012156|
|           6|   -6.324397|   -8.069883|    0.824003|    0.012157|
|           7|   -6.325172|   -8.077131|    0.824003|    0.012156|
|           8|   -6.324752|   -8.045064|    0.824003|    0.012156|
|           9|   -6.322824|   -8.014795|    0.824003|    0.012156|
|          10|   -6.318557|   -7.996062|    0.824003|    0.012156|
|          11|   -6.311374|   -7.983847|    0.824003|    0.012156|
|          12|   -6.301284|   -7.969882|    0.824003|    0.012156|
|          13|   -6.288803|   -7.948869|    0.824002|    0.012157|
|          14|   -6.274702|   -7.921049|    0.824002|    0.012157|
|          15|   -6.259800|   -7.890319|    0.824002|    0.012157|
|          16|   -6.244890|   -7.860806|    0.824002|    0.012157|
|          17|   -6.230720|   -7.835073|    0.824001|    0.012157|
|          18|   -6.217978|   -7.814024|    0.824001|    0.012157|
|          19|   -6.207221|   -7.797399|    0.824001|    0.012157|
|          20|   -6.198780|   -7.784265|    0.824000|    0.012157|
|          21|   -6.192685|   -7.773413|    0.824000|    0.012157|
|          22|   -6.188640|   -7.763709|    0.824000|    0.012158|
|          23|   -6.186082|   -7.754403|    0.824000|    0.012158|
|          24|   -6.184313|   -7.745330|    0.824000|    0.012158|
|          25|   -6.182676|   -7.736925|    0.824000|    0.012158|
|          26|   -6.180714|   -7.730054|    0.824000|    0.012159|
|          27|   -6.178250|   -7.725758|    0.824000|    0.012159|
|          28|   -6.175366|   -7.725013|    0.824000|    0.012159|
|          29|   -6.172298|   -7.728566|    0.824000|    0.012159|
|          30|   -6.169315|   -7.736836|    0.824000|    0.012159|
|          31|   -6.166618|   -7.749869|    0.824000|    0.012160|
|          32|   -6.164299|   -7.767293|    0.824000|    0.012160|
|          33|   -6.162344|   -7.788282|    0.824000|    0.012160|
|          34|   -6.160661|   -7.811545|    0.824000|    0.012160|
|          35|   -6.159124|   -7.835381|    0.824000|    0.012160|
|          36|   -6.157608|   -7.857864|    0.824000|    0.012160|
|          37|   -6.156017|   -7.877183|    0.824000|    0.012160|
|          38|   -6.154303|   -7.892040|    0.823999|    0.012160|
|          39|   -6.152469|   -7.901909|    0.823999|    0.012161|
|          40|   -6.150569|   -7.906997|    0.823998|    0.012161|
|          41|   -6.148691|   -7.907941|    0.823997|    0.012161|
|          42|   -6.146943|   -7.905453|    0.823997|    0.012161|
|          43|   -6.145433|   -7.900104|    0.823996|    0.012161|
|          44|   -6.144251|   -7.892320|    0.823995|    0.012161|
|          45|   -6.143450|   -7.882491|    0.823995|    0.012161|
|          46|   -6.143041|   -7.871109|    0.823994|    0.012161|
|          47|   -6.142994|   -7.858823|    0.823993|    0.012161|
|          48|   -6.143241|   -7.846411|    0.823993|    0.012161|
|          49|   -6.143694|   -7.834675|    0.823992|    0.012161|
|          50|   -6.144258|   -7.824341|    0.823992|    0.012162|
|          51|   -6.144852|   -7.815970|    0.823991|    0.012162|
|          52|   -6.145419|   -7.809921|    0.823991|    0.012162|
|          53|   -6.145930|   -7.806337|    0.823990|    0.012162|
|          54|   -6.146388|   -7.805164|    0.823990|    0.012162|
|          55|   -6.146823|   -7.806173|    0.823989|    0.012162|
|          56|   -6.147278|   -7.808997|    0.823989|    0.012162|
|          57|   -6.147804|   -7.813176|    0.823988|    0.012162|
|          58|   -6.148449|   -7.818201|    0.823988|    0.012162|
|          59|   -6.149255|   -7.823567|    0.823987|    0.012162|
|          60|   -6.150248|   -7.828820|    0.823987|    0.012162|
|          61|   -6.151447|   -7.833600|    0.823986|    0.012162|
|          62|   -6.152853|   -7.837664|    0.823986|    0.012162|
|          63|   -6.154460|   -7.840890|    0.823985|    0.012162|
|          64|   -6.156255|   -7.843262|    0.823985|    0.012162|
|          65|   -6.158219|   -7.844843|    0.823984|    0.012162|
|          66|   -6.160332|   -7.845744|    0.823984|    0.012162|
|          67|   -6.162576|   -7.846095|    0.823983|    0.012162|
|          68|   -6.164934|   -7.846021|    0.823983|    0.012162|
|          69|   -6.167395|   -7.845636|    0.823983|    0.012162|
|          70|   -6.169950|   -7.845035|    0.823982|    0.012162|
|          71|   -6.172592|   -7.844292|    0.823982|    0.012161|
|          72|   -6.175316|   -7.843465|    0.823982|    0.012161|
|          73|   -6.178116|   -7.842597|    0.823981|    0.012161|
|          74|   -6.180987|   -7.841719|    0.823981|    0.012161|
|          75|   -6.183921|   -7.840851|    0.823981|    0.012161|
|          76|   -6.186913|   -7.840003|    0.823981|    0.012161|
|          77|   -6.189956|   -7.839179|    0.823980|    0.012161|
|          78|   -6.193049|   -7.838378|    0.823980|    0.012161|
|          79|   -6.196195|   -7.837597|    0.823980|    0.012161|
|          80|   -6.199403|   -7.836835|    0.823980|    0.012161|
|          81|   -6.202686|   -7.836093|    0.823980|    0.012161|
|          82|   -6.206062|   -7.835380|    0.823980|    0.012161|
|          83|   -6.209553|   -7.834707|    0.823979|    0.012161|
|          84|   -6.213176|   -7.834096|    0.823979|    0.012161|
|          85|   -6.216944|   -7.833571|    0.823979|    0.012160|
|          86|   -6.220862|   -7.833159|    0.823979|    0.012160|
|          87|   -6.224920|   -7.832889|    0.823979|    0.012160|
|          88|   -6.229096|   -7.832787|    0.823979|    0.012160|
|          89|   -6.233352|   -7.832876|    0.823979|    0.012160|
|          90|   -6.237637|   -7.833175|    0.823978|    0.012160|
|          91|   -6.241889|   -7.833695|    0.823978|    0.012160|
|          92|   -6.246039|   -7.834443|    0.823978|    0.012160|
|          93|   -6.250015|   -7.835419|    0.823978|    0.012160|
|          94|   -6.253751|   -7.836618|    0.823978|    0.012160|
|          95|   -6.257189|   -7.838028|    0.823977|    0.012160|
|          96|   -6.260285|   -7.839638|    0.823977|    0.012160|
|          97|   -6.263012|   -7.841430|    0.823977|    0.012160|
|          98|   -6.265362|   -7.843388|    0.823977|    0.012159|
|          99|   -6.267342|   -7.845492|    0.823977|    0.012159|
|         100|   -6.268981|   -7.847724|    0.823976|    0.012159|
|         101|   -6.270315|   -7.850067|    0.823976|    0.012161|
+-----------------------------------------------------------------------+
|Fixed CL Mode                           |Value                         |
+-----------------------------------------------------------------------+
|Current CL                              |0.823976                      |
|Target CL                               |0.824                         |
|Previous AOA                            |2.78114                       |
|Changed AoA by                          |0.000117884                   |
+-----------------------------------------------------------------------+
+----------------------------------------------------------------+
|  Inner_Iter|    rms[Rho]|     rms[nu]|          CL|          CD|
+----------------------------------------------------------------+
|         102|   -4.121915|   -7.816401|    0.823976|    0.012161|
|         103|   -4.506545|   -7.836422|    0.823976|    0.012161|
|         104|   -4.751603|   -7.844202|    0.823976|    0.012161|
|         105|   -4.831572|   -7.849583|    0.823976|    0.012161|
|         106|   -4.886115|   -7.854158|    0.823976|    0.012161|
|         107|   -4.956733|   -7.858296|    0.823975|    0.012161|
|         108|   -5.044083|   -7.862103|    0.823975|    0.012161|
|         109|   -5.135263|   -7.865629|    0.823975|    0.012160|
|         110|   -5.213207|   -7.868904|    0.823975|    0.012160|
|         111|   -5.269115|   -7.871927|    0.823975|    0.012160|
|         112|   -5.304827|   -7.874702|    0.823975|    0.012160|
|         113|   -5.324718|   -7.877281|    0.823975|    0.012160|
|         114|   -5.333095|   -7.879731|    0.823975|    0.012160|
|         115|   -5.336027|   -7.882113|    0.823975|    0.012160|
|         116|   -5.340104|   -7.884456|    0.823975|    0.012160|
|         117|   -5.349640|   -7.886768|    0.823975|    0.012160|
|         118|   -5.365562|   -7.889060|    0.823975|    0.012160|
|         119|   -5.385993|   -7.891349|    0.823975|    0.012160|
|         120|   -5.407724|   -7.893659|    0.823975|    0.012160|
|         121|   -5.428034|   -7.896010|    0.823975|    0.012160|
|         122|   -5.446010|   -7.898409|    0.823975|    0.012160|
|         123|   -5.462489|   -7.900854|    0.823975|    0.012160|
|         124|   -5.478902|   -7.903334|    0.823975|    0.012161|
|         125|   -5.496166|   -7.905844|    0.823975|    0.012161|
|         126|   -5.514291|   -7.908380|    0.823975|    0.012161|
|         127|   -5.532597|   -7.910950|    0.823975|    0.012161|
|         128|   -5.550131|   -7.913559|    0.823975|    0.012161|
|         129|   -5.565989|   -7.916223|    0.823975|    0.012161|
|         130|   -5.579508|   -7.918957|    0.823975|    0.012161|
|         131|   -5.590393|   -7.921777|    0.823975|    0.012161|
|         132|   -5.598821|   -7.924700|    0.823974|    0.012161|
|         133|   -5.605451|   -7.927743|    0.823974|    0.012161|
|         134|   -5.611288|   -7.930919|    0.823974|    0.012161|
|         135|   -5.617418|   -7.934241|    0.823974|    0.012161|
|         136|   -5.624757|   -7.937716|    0.823974|    0.012161|
|         137|   -5.633882|   -7.941350|    0.823974|    0.012161|
|         138|   -5.644963|   -7.945152|    0.823974|    0.012161|
|         139|   -5.657760|   -7.949125|    0.823974|    0.012161|
|         140|   -5.671655|   -7.953276|    0.823974|    0.012161|
|         141|   -5.685749|   -7.957609|    0.823975|    0.012161|
|         142|   -5.699024|   -7.962129|    0.823975|    0.012161|
|         143|   -5.710600|   -7.966843|    0.823975|    0.012162|
|         144|   -5.719994|   -7.971750|    0.823975|    0.012162|
|         145|   -5.727277|   -7.976859|    0.823975|    0.012162|
|         146|   -5.733035|   -7.982170|    0.823975|    0.012162|
|         147|   -5.738156|   -7.987684|    0.823975|    0.012162|
|         148|   -5.743557|   -7.993398|    0.823976|    0.012162|
|         149|   -5.749960|   -7.999303|    0.823976|    0.012162|
|         150|   -5.757779|   -8.005387|    0.823976|    0.012162|
|         151|   -5.767091|   -8.011634|    0.823977|    0.012162|
|         152|   -5.777684|   -8.018024|    0.823977|    0.012162|
|         153|   -5.789142|   -8.024533|    0.823977|    0.012162|
|         154|   -5.800952|   -8.031132|    0.823978|    0.012163|
|         155|   -5.812620|   -8.037792|    0.823978|    0.012163|
|         156|   -5.823772|   -8.044482|    0.823979|    0.012163|
|         157|   -5.834207|   -8.051174|    0.823979|    0.012163|
|         158|   -5.843919|   -8.057839|    0.823980|    0.012163|
|         159|   -5.853052|   -8.064448|    0.823981|    0.012163|
|         160|   -5.861838|   -8.070973|    0.823981|    0.012163|
|         161|   -5.870526|   -8.077390|    0.823982|    0.012163|
|         162|   -5.879327|   -8.083680|    0.823983|    0.012163|
|         163|   -5.888382|   -8.089828|    0.823984|    0.012164|
|         164|   -5.897762|   -8.095823|    0.823984|    0.012164|
|         165|   -5.907473|   -8.101656|    0.823985|    0.012164|
|         166|   -5.917485|   -8.107321|    0.823986|    0.012164|
|         167|   -5.927746|   -8.112811|    0.823987|    0.012164|
|         168|   -5.938206|   -8.118117|    0.823988|    0.012164|
|         169|   -5.948824|   -8.123227|    0.823988|    0.012164|
|         170|   -5.959567|   -8.128123|    0.823989|    0.012164|
|         171|   -5.970414|   -8.132779|    0.823990|    0.012164|
|         172|   -5.981342|   -8.137165|    0.823991|    0.012165|
|         173|   -5.992320|   -8.141243|    0.823991|    0.012165|
|         174|   -6.003308|   -8.144968|    0.823992|    0.012165|
|         175|   -6.014248|   -8.148295|    0.823993|    0.012165|
|         176|   -6.025072|   -8.151177|    0.823993|    0.012165|
|         177|   -6.035697|   -8.153569|    0.823994|    0.012165|
|         178|   -6.046035|   -8.155435|    0.823994|    0.012165|
|         179|   -6.055994|   -8.156749|    0.823995|    0.012165|
|         180|   -6.065485|   -8.157503|    0.823995|    0.012165|
|         181|   -6.074428|   -8.157703|    0.823996|    0.012165|
|         182|   -6.082749|   -8.157374|    0.823996|    0.012165|
|         183|   -6.090391|   -8.156563|    0.823996|    0.012165|
|         184|   -6.097310|   -8.155332|    0.823996|    0.012165|
|         185|   -6.103481|   -8.153760|    0.823996|    0.012165|
|         186|   -6.108900|   -8.151938|    0.823996|    0.012165|
|         187|   -6.113581|   -8.149966|    0.823996|    0.012165|
|         188|   -6.117558|   -8.147949|    0.823996|    0.012165|
|         189|   -6.120883|   -8.145990|    0.823996|    0.012165|
|         190|   -6.123624|   -8.144192|    0.823996|    0.012165|
|         191|   -6.125860|   -8.142649|    0.823995|    0.012165|
|         192|   -6.127679|   -8.141449|    0.823995|    0.012165|
|         193|   -6.129171|   -8.140670|    0.823995|    0.012165|
|         194|   -6.130429|   -8.140376|    0.823994|    0.012165|
|         195|   -6.131543|   -8.140622|    0.823994|    0.012165|
|         196|   -6.132595|   -8.141452|    0.823993|    0.012165|
|         197|   -6.133665|   -8.142895|    0.823993|    0.012165|
|         198|   -6.134824|   -8.144970|    0.823992|    0.012165|
|         199|   -6.136133|   -8.147685|    0.823992|    0.012165|
|         200|   -6.137648|   -8.151035|    0.823991|    0.012165|
|         201|   -6.139415|   -8.155008|    0.823990|    0.012165|
+-----------------------------------------------------------------------+
|Fixed CL Mode                           |Value                         |
+-----------------------------------------------------------------------+
|Current CL                              |0.82399                       |
|Target CL                               |0.824                         |
|Previous AOA                            |2.78125                       |
|Changed AoA by                          |4.52134e-05                   |
+-----------------------------------------------------------------------+
+----------------------------------------------------------------+
|  Inner_Iter|    rms[Rho]|     rms[nu]|          CL|          CD|
+----------------------------------------------------------------+
|         202|   -4.537856|   -8.136355|    0.823990|    0.012165|
|         203|   -4.919633|   -8.152419|    0.823989|    0.012165|
|         204|   -5.156859|   -8.161279|    0.823989|    0.012165|
|         205|   -5.233048|   -8.169159|    0.823988|    0.012165|
|         206|   -5.286362|   -8.176982|    0.823987|    0.012165|
|         207|   -5.355321|   -8.184910|    0.823987|    0.012165|
|         208|   -5.439888|   -8.192941|    0.823986|    0.012165|
|         209|   -5.527843|   -8.201034|    0.823986|    0.012165|
|         210|   -5.604067|   -8.209132|    0.823985|    0.012165|
|         211|   -5.661266|   -8.217156|    0.823984|    0.012165|
|         212|   -5.700856|   -8.225037|    0.823984|    0.012165|
|         213|   -5.725715|   -8.232733|    0.823983|    0.012165|
|         214|   -5.738627|   -8.240226|    0.823983|    0.012165|
|         215|   -5.744696|   -8.247496|    0.823983|    0.012164|
|         216|   -5.750348|   -8.254513|    0.823982|    0.012164|
|         217|   -5.760230|   -8.261238|    0.823982|    0.012164|
|         218|   -5.775734|   -8.267649|    0.823981|    0.012164|
|         219|   -5.795454|   -8.273744|    0.823981|    0.012164|
|         220|   -5.816652|   -8.279542|    0.823981|    0.012164|
|         221|   -5.836997|   -8.285072|    0.823981|    0.012164|
|         222|   -5.855736|   -8.290361|    0.823980|    0.012164|
|         223|   -5.873593|   -8.295433|    0.823980|    0.012164|
|         224|   -5.891702|   -8.300311|    0.823980|    0.012164|
|         225|   -5.910612|   -8.305022|    0.823980|    0.012164|
|         226|   -5.929957|   -8.309596|    0.823980|    0.012164|
|         227|   -5.948714|   -8.314070|    0.823980|    0.012164|
|         228|   -5.965689|   -8.318483|    0.823980|    0.012164|
|         229|   -5.979923|   -8.322881|    0.823980|    0.012164|
|         230|   -5.990917|   -8.327308|    0.823980|    0.012164|
|         231|   -5.998712|   -8.331809|    0.823980|    0.012164|
|         232|   -6.003872|   -8.336426|    0.823981|    0.012164|
|         233|   -6.007360|   -8.341195|    0.823981|    0.012163|
|         234|   -6.010309|   -8.346145|    0.823981|    0.012163|
|         235|   -6.013760|   -8.351296|    0.823981|    0.012163|
|         236|   -6.018458|   -8.356660|    0.823982|    0.012163|
|         237|   -6.024755|   -8.362241|    0.823982|    0.012163|
|         238|   -6.032596|   -8.368035|    0.823982|    0.012163|
|         239|   -6.041566|   -8.374034|    0.823983|    0.012163|
|         240|   -6.050969|   -8.380225|    0.823983|    0.012163|
|         241|   -6.059960|   -8.386592|    0.823984|    0.012163|
|         242|   -6.067726|   -8.393117|    0.823984|    0.012163|
|         243|   -6.073697|   -8.399783|    0.823984|    0.012163|
|         244|   -6.077714|   -8.406574|    0.823985|    0.012163|
|         245|   -6.080070|   -8.413470|    0.823985|    0.012163|
|         246|   -6.081405|   -8.420459|    0.823986|    0.012163|
|         247|   -6.082500|   -8.427524|    0.823986|    0.012163|
|         248|   -6.084076|   -8.434651|    0.823987|    0.012163|
|         249|   -6.086650|   -8.441825|    0.823987|    0.012163|
|         250|   -6.090483|   -8.449037|    0.823988|    0.012163|
|         251|   -6.095584|   -8.456274|    0.823988|    0.012163|
|         252|   -6.101767|   -8.463525|    0.823989|    0.012164|
|         253|   -6.108731|   -8.470777|    0.823990|    0.012164|
|         254|   -6.116143|   -8.478018|    0.823990|    0.012164|
|         255|   -6.123710|   -8.485230|    0.823991|    0.012164|
|         256|   -6.131235|   -8.492397|    0.823991|    0.012164|
|         257|   -6.138640|   -8.499487|    0.823992|    0.012164|
|         258|   -6.145955|   -8.506475|    0.823992|    0.012164|
|         259|   -6.153291|   -8.513326|    0.823993|    0.012164|
|         260|   -6.160793|   -8.519998|    0.823993|    0.012164|
|         261|   -6.168605|   -8.526442|    0.823994|    0.012164|
|         262|   -6.176835|   -8.532610|    0.823994|    0.012164|
|         263|   -6.185546|   -8.538449|    0.823995|    0.012164|
|         264|   -6.194753|   -8.543912|    0.823995|    0.012164|
|         265|   -6.204434|   -8.548963|    0.823996|    0.012164|
|         266|   -6.214538|   -8.553575|    0.823996|    0.012164|
|         267|   -6.225003|   -8.557736|    0.823997|    0.012164|
|         268|   -6.235760|   -8.561455|    0.823997|    0.012164|
|         269|   -6.246744|   -8.564757|    0.823998|    0.012164|
|         270|   -6.257891|   -8.567689|    0.823998|    0.012164|
|         271|   -6.269133|   -8.570313|    0.823999|    0.012164|
|         272|   -6.280398|   -8.572712|    0.823999|    0.012164|
|         273|   -6.291604|   -8.574975|    0.824000|    0.012164|
|         274|   -6.302652|   -8.577198|    0.824000|    0.012164|
|         275|   -6.313432|   -8.579478|    0.824000|    0.012164|
|         276|   -6.323820|   -8.581904|    0.824001|    0.012164|
|         277|   -6.333683|   -8.584558|    0.824001|    0.012164|
|         278|   -6.342890|   -8.587505|    0.824001|    0.012164|
|         279|   -6.351312|   -8.590792|    0.824002|    0.012164|
|         280|   -6.358837|   -8.594445|    0.824002|    0.012164|
|         281|   -6.365372|   -8.598468|    0.824002|    0.012164|
|         282|   -6.370849|   -8.602839|    0.824003|    0.012164|
|         283|   -6.375233|   -8.607513|    0.824003|    0.012164|
|         284|   -6.378521|   -8.612422|    0.824003|    0.012164|
|         285|   -6.380740|   -8.617477|    0.824003|    0.012164|
|         286|   -6.381946|   -8.622573|    0.824003|    0.012164|
|         287|   -6.382222|   -8.627590|    0.824003|    0.012164|
|         288|   -6.381669|   -8.632409|    0.824003|    0.012164|
|         289|   -6.380401|   -8.636910|    0.824004|    0.012165|
|         290|   -6.378539|   -8.640989|    0.824004|    0.012165|
|         291|   -6.376206|   -8.644564|    0.824004|    0.012165|
|         292|   -6.373521|   -8.647580|    0.824004|    0.012165|
|         293|   -6.370597|   -8.650019|    0.824003|    0.012165|
|         294|   -6.367535|   -8.651900|    0.824003|    0.012165|
|         295|   -6.364428|   -8.653278|    0.824003|    0.012165|
|         296|   -6.361356|   -8.654237|    0.824003|    0.012165|
|         297|   -6.358388|   -8.654888|    0.824003|    0.012165|
|         298|   -6.355580|   -8.655352|    0.824003|    0.012165|
|         299|   -6.352980|   -8.655759|    0.824003|    0.012165|
|         300|   -6.350626|   -8.656230|    0.824003|    0.012165|
|         301|   -6.348549|   -8.656874|    0.824002|    0.012165|
+-----------------------------------------------------------------------+
|Fixed CL Mode                           |Value                         |
+-----------------------------------------------------------------------+
|Current CL                              |0.824002                      |
|Target CL                               |0.824                         |
|Previous AOA                            |2.7813                        |
|Changed AoA by                          |-1.25174e-05                  |
+-----------------------------------------------------------------------+
+----------------------------------------------------------------+
|  Inner_Iter|    rms[Rho]|     rms[nu]|          CL|          CD|
+----------------------------------------------------------------+
|         302|   -5.095311|   -8.641773|    0.824002|    0.012165|
|         303|   -5.480842|   -8.651654|    0.824002|    0.012165|
|         304|   -5.731828|   -8.655667|    0.824002|    0.012165|
|         305|   -5.814890|   -8.658760|    0.824001|    0.012165|
|         306|   -5.866924|   -8.661692|    0.824001|    0.012165|
|         307|   -5.930365|   -8.664591|    0.824001|    0.012165|
|         308|   -6.003838|   -8.667419|    0.824001|    0.012165|
|         309|   -6.071909|   -8.670078|    0.824000|    0.012164|
|         310|   -6.119712|   -8.672434|    0.824000|    0.012164|
|         311|   -6.145795|   -8.674335|    0.824000|    0.012164|
|         312|   -6.157738|   -8.675630|    0.823999|    0.012164|
|         313|   -6.162018|   -8.676197|    0.823999|    0.012164|
|         314|   -6.162542|   -8.675947|    0.823999|    0.012164|
|         315|   -6.162626|   -8.674813|    0.823999|    0.012164|
|         316|   -6.165166|   -8.672755|    0.823999|    0.012164|
|         317|   -6.171732|   -8.669771|    0.823998|    0.012164|
|         318|   -6.182125|   -8.665905|    0.823998|    0.012164|
|         319|   -6.194757|   -8.661253|    0.823998|    0.012164|
|         320|   -6.207593|   -8.655952|    0.823998|    0.012164|
|         321|   -6.219163|   -8.650168|    0.823998|    0.012164|
|         322|   -6.229117|   -8.644083|    0.823997|    0.012164|
|         323|   -6.238012|   -8.637884|    0.823997|    0.012164|
|         324|   -6.246691|   -8.631750|    0.823997|    0.012164|
|         325|   -6.255754|   -8.625854|    0.823997|    0.012164|
|         326|   -6.265400|   -8.620350|    0.823997|    0.012164|
|         327|   -6.275517|   -8.615371|    0.823997|    0.012164|
|         328|   -6.285844|   -8.611027|    0.823997|    0.012164|
|         329|   -6.296078|   -8.607407|    0.823997|    0.012164|
|         330|   -6.305930|   -8.604573|    0.823997|    0.012164|
|         331|   -6.315181|   -8.602568|    0.823997|    0.012164|
|         332|   -6.323731|   -8.601414|    0.823997|    0.012164|
|         333|   -6.331648|   -8.601111|    0.823997|    0.012164|
|         334|   -6.339156|   -8.601646|    0.823997|    0.012164|
|         335|   -6.346573|   -8.602987|    0.823997|    0.012164|
|         336|   -6.354219|   -8.605085|    0.823997|    0.012164|
|         337|   -6.362335|   -8.607880|    0.823997|    0.012164|
|         338|   -6.371023|   -8.611298|    0.823998|    0.012164|
|         339|   -6.380232|   -8.615255|    0.823998|    0.012164|
|         340|   -6.389759|   -8.619657|    0.823998|    0.012164|
|         341|   -6.399292|   -8.624404|    0.823998|    0.012164|
|         342|   -6.408469|   -8.629390|    0.823998|    0.012164|
|         343|   -6.416959|   -8.634511|    0.823998|    0.012164|
|         344|   -6.424535|   -8.639665|    0.823998|    0.012164|
|         345|   -6.431124|   -8.644755|    0.823998|    0.012164|
|         346|   -6.436797|   -8.649697|    0.823999|    0.012164|
|         347|   -6.441729|   -8.654419|    0.823999|    0.012163|
|         348|   -6.446118|   -8.658865|    0.823999|    0.012163|
|         349|   -6.450130|   -8.662998|    0.823999|    0.012163|
|         350|   -6.453845|   -8.666802|    0.823999|    0.012163|
|         351|   -6.457253|   -8.670277|    0.823999|    0.012163|
|         352|   -6.460270|   -8.673443|    0.823999|    0.012163|
|         353|   -6.462771|   -8.676335|    0.823999|    0.012163|
|         354|   -6.464636|   -8.679001|    0.823999|    0.012163|
|         355|   -6.465779|   -8.681495|    0.823999|    0.012163|
|         356|   -6.466178|   -8.683878|    0.823999|    0.012163|
|         357|   -6.465873|   -8.686212|    0.823999|    0.012163|
|         358|   -6.464958|   -8.688555|    0.824000|    0.012163|
|         359|   -6.463560|   -8.690961|    0.824000|    0.012163|
|         360|   -6.461822|   -8.693477|    0.824000|    0.012163|
|         361|   -6.459879|   -8.696138|    0.824000|    0.012163|
|         362|   -6.457851|   -8.698974|    0.824000|    0.012163|
|         363|   -6.455837|   -8.701998|    0.824000|    0.012163|
|         364|   -6.453916|   -8.705220|    0.824000|    0.012163|
|         365|   -6.452153|   -8.708635|    0.824000|    0.012163|
|         366|   -6.450601|   -8.712229|    0.824000|    0.012163|
|         367|   -6.449303|   -8.715983|    0.824000|    0.012163|
|         368|   -6.448299|   -8.719870|    0.824000|    0.012163|
|         369|   -6.447625|   -8.723858|    0.824000|    0.012163|
|         370|   -6.447312|   -8.727913|    0.824000|    0.012163|
|         371|   -6.447390|   -8.731999|    0.824000|    0.012163|
|         372|   -6.447879|   -8.736080|    0.824000|    0.012163|
|         373|   -6.448799|   -8.740124|    0.824000|    0.012163|
|         374|   -6.450163|   -8.744101|    0.824000|    0.012163|
|         375|   -6.451977|   -8.747988|    0.824000|    0.012163|
|         376|   -6.454246|   -8.751765|    0.824000|    0.012163|
|         377|   -6.456969|   -8.755420|    0.824000|    0.012163|
|         378|   -6.460141|   -8.758947|    0.824000|    0.012163|
|         379|   -6.463754|   -8.762345|    0.824000|    0.012163|
|         380|   -6.467794|   -8.765618|    0.824000|    0.012163|
|         381|   -6.472245|   -8.768774|    0.824000|    0.012163|
|         382|   -6.477088|   -8.771824|    0.824000|    0.012163|
|         383|   -6.482295|   -8.774782|    0.824000|    0.012163|
|         384|   -6.487839|   -8.777659|    0.824000|    0.012163|
|         385|   -6.493685|   -8.780468|    0.824000|    0.012163|
|         386|   -6.499795|   -8.783219|    0.824000|    0.012163|
|         387|   -6.506125|   -8.785919|    0.824000|    0.012163|
|         388|   -6.512627|   -8.788571|    0.824000|    0.012163|
|         389|   -6.519251|   -8.791178|    0.824000|    0.012163|
|         390|   -6.525941|   -8.793737|    0.824000|    0.012163|
|         391|   -6.532640|   -8.796243|    0.824000|    0.012163|
|         392|   -6.539290|   -8.798689|    0.824000|    0.012163|
|         393|   -6.545828|   -8.801067|    0.824000|    0.012163|
|         394|   -6.552196|   -8.803366|    0.824001|    0.012163|
|         395|   -6.558334|   -8.805579|    0.824001|    0.012163|
|         396|   -6.564187|   -8.807699|    0.824001|    0.012163|
|         397|   -6.569702|   -8.809719|    0.824001|    0.012163|
|         398|   -6.574835|   -8.811638|    0.824001|    0.012163|
|         399|   -6.579545|   -8.813457|    0.824001|    0.012163|
|         400|   -6.583802|   -8.815180|    0.824001|    0.012163|
|         401|   -6.587585|   -8.816815|    0.824001|    0.012163|
+-----------------------------------------------------------------------+
|Fixed CL Mode                           |Value                         |
+-----------------------------------------------------------------------+
|Current CL                              |0.824001                      |
|Target CL                               |0.824                         |
|Previous AOA                            |2.78129                       |
|Changed AoA by                          |-4.76e-06                     |
+-----------------------------------------------------------------------+
+----------------------------------------------------------------+
|  Inner_Iter|    rms[Rho]|     rms[nu]|          CL|          CD|
+----------------------------------------------------------------+
|         402|   -5.514129|   -8.813405|    0.824001|    0.012163|
|         403|   -5.891821|   -8.817625|    0.824001|    0.012163|
|         404|   -6.123699|   -8.819853|    0.824001|    0.012163|
|         405|   -6.197820|   -8.821672|    0.824001|    0.012163|
|         406|   -6.245876|   -8.823344|    0.824001|    0.012163|
|         407|   -6.302951|   -8.824950|    0.824001|    0.012163|
|         408|   -6.366159|   -8.826531|    0.824001|    0.012163|
|         409|   -6.422282|   -8.828118|    0.824001|    0.012163|
|         410|   -6.461027|   -8.829738|    0.824001|    0.012163|
|         411|   -6.482929|   -8.831416|    0.824001|    0.012163|
|         412|   -6.494013|   -8.833172|    0.824001|    0.012163|
|         413|   -6.498851|   -8.835032|    0.824001|    0.012163|
|         414|   -6.500125|   -8.837019|    0.824001|    0.012163|
|         415|   -6.500176|   -8.839150|    0.824001|    0.012163|
|         416|   -6.501137|   -8.841437|    0.824001|    0.012163|
|         417|   -6.504234|   -8.843884|    0.824001|    0.012163|
|         418|   -6.509443|   -8.846492|    0.824001|    0.012163|
|         419|   -6.515809|   -8.849262|    0.824001|    0.012163|
|         420|   -6.522153|   -8.852193|    0.824001|    0.012163|
|         421|   -6.527722|   -8.855284|    0.824001|    0.012163|
|         422|   -6.532426|   -8.858530|    0.824001|    0.012163|
|         423|   -6.536628|   -8.861925|    0.824001|    0.012163|
|         424|   -6.540757|   -8.865462|    0.824001|    0.012163|
|         425|   -6.545042|   -8.869132|    0.824001|    0.012163|
|         426|   -6.549473|   -8.872930|    0.824001|    0.012163|
|         427|   -6.553895|   -8.876846|    0.824001|    0.012163|
|         428|   -6.558127|   -8.880874|    0.824001|    0.012163|
|         429|   -6.562028|   -8.885007|    0.824001|    0.012163|
|         430|   -6.565525|   -8.889238|    0.824001|    0.012163|
|         431|   -6.568614|   -8.893560|    0.824001|    0.012163|
|         432|   -6.571365|   -8.897966|    0.824001|    0.012163|
|         433|   -6.573914|   -8.902451|    0.824001|    0.012163|
|         434|   -6.576441|   -8.907007|    0.824001|    0.012163|
|         435|   -6.579128|   -8.911628|    0.824001|    0.012163|
|         436|   -6.582126|   -8.916308|    0.824001|    0.012163|
|         437|   -6.585530|   -8.921042|    0.824001|    0.012163|
|         438|   -6.589364|   -8.925822|    0.824001|    0.012163|
|         439|   -6.593592|   -8.930646|    0.824001|    0.012163|
|         440|   -6.598135|   -8.935507|    0.824001|    0.012163|
|         441|   -6.602888|   -8.940404|    0.824001|    0.012163|
|         442|   -6.607751|   -8.945333|    0.824001|    0.012163|
|         443|   -6.612654|   -8.950295|    0.824001|    0.012163|
|         444|   -6.617570|   -8.955288|    0.824001|    0.012163|
|         445|   -6.622529|   -8.960314|    0.824001|    0.012163|
|         446|   -6.627598|   -8.965374|    0.824001|    0.012163|
|         447|   -6.632870|   -8.970471|    0.824001|    0.012163|
|         448|   -6.638436|   -8.975609|    0.824001|    0.012163|
|         449|   -6.644363|   -8.980790|    0.824000|    0.012163|
|         450|   -6.650684|   -8.986021|    0.824000|    0.012163|
|         451|   -6.657390|   -8.991307|    0.824000|    0.012163|
|         452|   -6.664441|   -8.996654|    0.824000|    0.012163|
|         453|   -6.671770|   -9.002072|    0.824000|    0.012163|
|         454|   -6.679300|   -9.007567|    0.824000|    0.012163|
|         455|   -6.686952|   -9.013152|    0.824000|    0.012163|
|         456|   -6.694658|   -9.018836|    0.824000|    0.012163|
|         457|   -6.702358|   -9.024630|    0.824000|    0.012163|
|         458|   -6.710005|   -9.030547|    0.824000|    0.012163|
|         459|   -6.717556|   -9.036598|    0.824000|    0.012163|
|         460|   -6.724971|   -9.042793|    0.824000|    0.012163|
|         461|   -6.732204|   -9.049141|    0.824000|    0.012163|
|         462|   -6.739201|   -9.055650|    0.824000|    0.012163|
|         463|   -6.745902|   -9.062327|    0.824000|    0.012163|
|         464|   -6.752236|   -9.069173|    0.824000|    0.012163|
|         465|   -6.758132|   -9.076189|    0.824000|    0.012163|
|         466|   -6.763519|   -9.083372|    0.824000|    0.012163|
|         467|   -6.768332|   -9.090718|    0.824000|    0.012163|
|         468|   -6.772517|   -9.098216|    0.824000|    0.012163|
|         469|   -6.776036|   -9.105856|    0.824000|    0.012163|
|         470|   -6.778865|   -9.113625|    0.824000|    0.012163|
|         471|   -6.780998|   -9.121505|    0.824000|    0.012163|
|         472|   -6.782446|   -9.129479|    0.824000|    0.012163|
|         473|   -6.783236|   -9.137529|    0.824000|    0.012163|
|         474|   -6.783413|   -9.145632|    0.824000|    0.012163|
|         475|   -6.783031|   -9.153769|    0.824000|    0.012163|
|         476|   -6.782158|   -9.161917|    0.824000|    0.012163|
|         477|   -6.780869|   -9.170053|    0.824000|    0.012163|
|         478|   -6.779244|   -9.178153|    0.824000|    0.012163|
|         479|   -6.777368|   -9.186191|    0.824000|    0.012163|
|         480|   -6.775325|   -9.194140|    0.824000|    0.012163|
|         481|   -6.773197|   -9.201970|    0.824000|    0.012163|
|         482|   -6.771065|   -9.209651|    0.824000|    0.012163|
|         483|   -6.769002|   -9.217148|    0.824000|    0.012163|
|         484|   -6.767076|   -9.224423|    0.824000|    0.012163|
|         485|   -6.765349|   -9.231437|    0.824000|    0.012163|
|         486|   -6.763876|   -9.238147|    0.824000|    0.012163|
|         487|   -6.762705|   -9.244512|    0.824000|    0.012163|
|         488|   -6.761876|   -9.250488|    0.824000|    0.012163|
|         489|   -6.761425|   -9.256035|    0.824000|    0.012163|
|         490|   -6.761380|   -9.261114|    0.824000|    0.012163|
|         491|   -6.761765|   -9.265693|    0.824000|    0.012163|
|         492|   -6.762596|   -9.269748|    0.824000|    0.012163|
|         493|   -6.763886|   -9.273260|    0.824000|    0.012163|
|         494|   -6.765645|   -9.276224|    0.824000|    0.012163|
|         495|   -6.767877|   -9.278642|    0.824000|    0.012163|
|         496|   -6.770582|   -9.280525|    0.824000|    0.012163|
|         497|   -6.773757|   -9.281896|    0.824000|    0.012163|
|         498|   -6.777397|   -9.282783|    0.824000|    0.012163|
|         499|   -6.781491|   -9.283219|    0.824000|    0.012163|
|         500|   -6.786029|   -9.283245|    0.824000|    0.012163|
|         501|   -6.790994|   -9.282898|    0.824000|    0.012163|
|         502|   -6.796369|   -9.282219|    0.824000|    0.012163|
|         503|   -6.802135|   -9.281246|    0.824000|    0.012163|
|         504|   -6.808267|   -9.280015|    0.824000|    0.012163|
|         505|   -6.814742|   -9.278557|    0.824000|    0.012163|
|         506|   -6.821531|   -9.276900|    0.824000|    0.012163|
|         507|   -6.828605|   -9.275069|    0.824000|    0.012163|
|         508|   -6.835933|   -9.273085|    0.824000|    0.012163|
|         509|   -6.843481|   -9.270969|    0.824000|    0.012163|
|         510|   -6.851213|   -9.268736|    0.824000|    0.012163|
|         511|   -6.859093|   -9.266405|    0.824000|    0.012163|
|         512|   -6.867083|   -9.263992|    0.824000|    0.012163|
|         513|   -6.875145|   -9.261516|    0.824000|    0.012163|
|         514|   -6.883238|   -9.258996|    0.824000|    0.012163|
|         515|   -6.891323|   -9.256454|    0.824000|    0.012163|
|         516|   -6.899361|   -9.253912|    0.824000|    0.012163|
|         517|   -6.907312|   -9.251396|    0.824000|    0.012163|
|         518|   -6.915140|   -9.248929|    0.824000|    0.012163|
|         519|   -6.922806|   -9.246539|    0.824000|    0.012163|
|         520|   -6.930277|   -9.244250|    0.824000|    0.012163|
|         521|   -6.937519|   -9.242087|    0.824000|    0.012163|
|         522|   -6.944501|   -9.240072|    0.824000|    0.012163|
|         523|   -6.951195|   -9.238226|    0.824000|    0.012163|
|         524|   -6.957576|   -9.236564|    0.824000|    0.012163|
|         525|   -6.963621|   -9.235099|    0.824000|    0.012163|
|         526|   -6.969310|   -9.233841|    0.824000|    0.012163|
|         527|   -6.974627|   -9.232794|    0.824000|    0.012163|
|         528|   -6.979556|   -9.231958|    0.824000|    0.012163|
|         529|   -6.984088|   -9.231328|    0.824000|    0.012163|
|         530|   -6.988215|   -9.230896|    0.824000|    0.012163|
|         531|   -6.991932|   -9.230650|    0.824000|    0.012163|
|         532|   -6.995238|   -9.230576|    0.824000|    0.012163|
|         533|   -6.998134|   -9.230657|    0.824000|    0.012163|
|         534|   -7.000626|   -9.230874|    0.824000|    0.012163|
|         535|   -7.002722|   -9.231207|    0.824000|    0.012163|
|         536|   -7.004434|   -9.231639|    0.824000|    0.012163|
|         537|   -7.005777|   -9.232152|    0.824000|    0.012163|
|         538|   -7.006771|   -9.232730|    0.824000|    0.012163|
|         539|   -7.007436|   -9.233361|    0.824000|    0.012163|
|         540|   -7.007799|   -9.234035|    0.824000|    0.012163|
|         541|   -7.007888|   -9.234746|    0.824000|    0.012163|
|         542|   -7.007734|   -9.235495|    0.824000|    0.012163|
|         543|   -7.007370|   -9.236282|    0.824000|    0.012163|
|         544|   -7.006834|   -9.237116|    0.824000|    0.012163|
|         545|   -7.006162|   -9.238005|    0.824000|    0.012163|
|         546|   -7.005393|   -9.238964|    0.824000|    0.012163|
|         547|   -7.004569|   -9.240007|    0.824000|    0.012163|
|         548|   -7.003729|   -9.241151|    0.824000|    0.012163|
|         549|   -7.002916|   -9.242415|    0.824000|    0.012163|
|         550|   -7.002170|   -9.243815|    0.824000|    0.012163|
|         551|   -7.001530|   -9.245369|    0.824000|    0.012163|
|         552|   -7.001038|   -9.247091|    0.824000|    0.012163|
|         553|   -7.000732|   -9.248994|    0.824000|    0.012163|
|         554|   -7.000648|   -9.251089|    0.824000|    0.012163|
|         555|   -7.000822|   -9.253381|    0.824000|    0.012163|
|         556|   -7.001288|   -9.255874|    0.824000|    0.012163|
|         557|   -7.002077|   -9.258567|    0.824000|    0.012163|
|         558|   -7.003221|   -9.261456|    0.824000|    0.012163|
|         559|   -7.004746|   -9.264533|    0.824000|    0.012163|
|         560|   -7.006678|   -9.267786|    0.824000|    0.012163|
|         561|   -7.009041|   -9.271200|    0.824000|    0.012163|
|         562|   -7.011854|   -9.274758|    0.824000|    0.012163|
|         563|   -7.015138|   -9.278440|    0.824000|    0.012163|
|         564|   -7.018907|   -9.282225|    0.824000|    0.012163|
|         565|   -7.023174|   -9.286090|    0.824000|    0.012163|
|         566|   -7.027950|   -9.290012|    0.824000|    0.012163|
|         567|   -7.033243|   -9.293968|    0.824000|    0.012163|
|         568|   -7.039055|   -9.297936|    0.824000|    0.012163|
|         569|   -7.045389|   -9.301896|    0.824000|    0.012163|
|         570|   -7.052239|   -9.305827|    0.824000|    0.012163|
|         571|   -7.059600|   -9.309713|    0.824000|    0.012163|
|         572|   -7.067460|   -9.313540|    0.824000|    0.012163|
|         573|   -7.075802|   -9.317294|    0.824000|    0.012163|
|         574|   -7.084604|   -9.320966|    0.824000|    0.012163|
|         575|   -7.093838|   -9.324547|    0.824000|    0.012163|
|         576|   -7.103472|   -9.328033|    0.824000|    0.012163|
|         577|   -7.113464|   -9.331417|    0.824000|    0.012163|
|         578|   -7.123766|   -9.334698|    0.824000|    0.012163|
|         579|   -7.134325|   -9.337873|    0.824000|    0.012163|
|         580|   -7.145077|   -9.340939|    0.824000|    0.012163|
|         581|   -7.155952|   -9.343895|    0.824000|    0.012163|
|         582|   -7.166875|   -9.346738|    0.824000|    0.012163|
|         583|   -7.177761|   -9.349464|    0.824000|    0.012163|
|         584|   -7.188523|   -9.352070|    0.824000|    0.012163|
|         585|   -7.199070|   -9.354551|    0.824000|    0.012163|
|         586|   -7.209309|   -9.356901|    0.823999|    0.012163|
|         587|   -7.219150|   -9.359115|    0.823999|    0.012163|
|         588|   -7.228509|   -9.361185|    0.823999|    0.012163|
|         589|   -7.237308|   -9.363106|    0.823999|    0.012163|
|         590|   -7.245483|   -9.364870|    0.823999|    0.012163|
|         591|   -7.252984|   -9.366472|    0.823999|    0.012163|
|         592|   -7.259779|   -9.367908|    0.823999|    0.012163|
|         593|   -7.265856|   -9.369173|    0.823999|    0.012163|
|         594|   -7.271221|   -9.370266|    0.823999|    0.012163|
|         595|   -7.275901|   -9.371187|    0.823999|    0.012163|
|         596|   -7.279940|   -9.371936|    0.823999|    0.012163|
|         597|   -7.283400|   -9.372518|    0.823999|    0.012163|
|         598|   -7.286352|   -9.372938|    0.823999|    0.012163|
|         599|   -7.288879|   -9.373202|    0.823999|    0.012163|
|         600|   -7.291069|   -9.373320|    0.823999|    0.012163|
|         601|   -7.293011|   -9.373300|    0.823999|    0.012163|
+-----------------------------------------------------------------------+
|Fixed CL Mode                           |Value                         |
+-----------------------------------------------------------------------+
|Current CL                              |0.823999                      |
|Target CL                               |0.824                         |
|Previous AOA                            |2.78128                       |
|Changed AoA by                          |4.19635e-06                   |
+-----------------------------------------------------------------------+
+----------------------------------------------------------------+
|  Inner_Iter|    rms[Rho]|     rms[nu]|          CL|          CD|
+----------------------------------------------------------------+
|         602|   -5.570460|   -9.324698|    0.823999|    0.012163|
|         603|   -5.955298|   -9.348250|    0.823999|    0.012163|
|         604|   -6.200735|   -9.355218|    0.823999|    0.012163|
|         605|   -6.280118|   -9.358673|    0.823999|    0.012163|
|         606|   -6.333443|   -9.360794|    0.823999|    0.012163|
|         607|   -6.402378|   -9.362142|    0.823999|    0.012163|
|         608|   -6.487337|   -9.362934|    0.823999|    0.012163|
|         609|   -6.575283|   -9.363316|    0.823999|    0.012163|
|         610|   -6.649663|   -9.363383|    0.823999|    0.012163|
|         611|   -6.702647|   -9.363190|    0.823999|    0.012163|
|         612|   -6.736643|   -9.362776|    0.823999|    0.012163|
|         613|   -6.756080|   -9.362219|    0.823999|    0.012163|
|         614|   -6.764981|   -9.361612|    0.823999|    0.012163|
|         615|   -6.768836|   -9.361024|    0.823999|    0.012163|
|         616|   -6.773669|   -9.360481|    0.823999|    0.012163|
|         617|   -6.783486|   -9.359986|    0.823999|    0.012163|
|         618|   -6.799166|   -9.359541|    0.823999|    0.012163|
|         619|   -6.818953|   -9.359162|    0.823999|    0.012163|
|         620|   -6.839863|   -9.358868|    0.823999|    0.012163|
|         621|   -6.859399|   -9.358674|    0.823999|    0.012163|
|         622|   -6.876756|   -9.358590|    0.823999|    0.012163|
|         623|   -6.892731|   -9.358611|    0.823999|    0.012163|
|         624|   -6.908640|   -9.358722|    0.823999|    0.012163|
|         625|   -6.925304|   -9.358909|    0.823999|    0.012163|
|         626|   -6.942696|   -9.359163|    0.823999|    0.012163|
|         627|   -6.960157|   -9.359478|    0.823999|    0.012163|
|         628|   -6.976788|   -9.359851|    0.823999|    0.012163|
|         629|   -6.991753|   -9.360278|    0.823999|    0.012163|
|         630|   -7.004454|   -9.360759|    0.823999|    0.012163|
|         631|   -7.014644|   -9.361293|    0.823999|    0.012163|
|         632|   -7.022510|   -9.361879|    0.823999|    0.012163|
|         633|   -7.028684|   -9.362516|    0.823999|    0.012163|
|         634|   -7.034100|   -9.363199|    0.823999|    0.012163|
|         635|   -7.039767|   -9.363924|    0.823999|    0.012163|
|         636|   -7.046534|   -9.364686|    0.823999|    0.012163|
|         637|   -7.054944|   -9.365478|    0.823999|    0.012163|
|         638|   -7.065167|   -9.366296|    0.823999|    0.012163|
|         639|   -7.077008|   -9.367134|    0.823999|    0.012163|
|         640|   -7.089942|   -9.367990|    0.823999|    0.012163|
|         641|   -7.103201|   -9.368864|    0.823999|    0.012163|
|         642|   -7.115926|   -9.369759|    0.823999|    0.012163|
|         643|   -7.127373|   -9.370681|    0.823999|    0.012163|
|         644|   -7.137129|   -9.371642|    0.823999|    0.012163|
|         645|   -7.145241|   -9.372653|    0.823999|    0.012163|
|         646|   -7.152184|   -9.373728|    0.823999|    0.012163|
|         647|   -7.158703|   -9.374883|    0.823999|    0.012163|
|         648|   -7.165580|   -9.376134|    0.823999|    0.012163|
|         649|   -7.173451|   -9.377500|    0.823999|    0.012163|
|         650|   -7.182693|   -9.378996|    0.823999|    0.012163|
|         651|   -7.193394|   -9.380637|    0.823999|    0.012163|
|         652|   -7.205384|   -9.382439|    0.823999|    0.012163|
|         653|   -7.218306|   -9.384418|    0.823999|    0.012163|
|         654|   -7.231710|   -9.386588|    0.823999|    0.012163|
|         655|   -7.245148|   -9.388964|    0.823999|    0.012163|
|         656|   -7.258267|   -9.391559|    0.823999|    0.012163|
|         657|   -7.270868|   -9.394387|    0.823999|    0.012163|
|         658|   -7.282917|   -9.397459|    0.823999|    0.012163|
|         659|   -7.294523|   -9.400787|    0.823999|    0.012163|
|         660|   -7.305875|   -9.404378|    0.823999|    0.012163|
|         661|   -7.317185|   -9.408241|    0.823999|    0.012163|
|         662|   -7.328633|   -9.412380|    0.823999|    0.012163|
|         663|   -7.340335|   -9.416796|    0.824000|    0.012163|
|         664|   -7.352334|   -9.421489|    0.824000|    0.012163|
|         665|   -7.364611|   -9.426453|    0.824000|    0.012163|
|         666|   -7.377103|   -9.431680|    0.824000|    0.012163|
|         667|   -7.389722|   -9.437155|    0.824000|    0.012163|
|         668|   -7.402377|   -9.442861|    0.824000|    0.012163|
|         669|   -7.414983|   -9.448775|    0.824000|    0.012163|
|         670|   -7.427463|   -9.454867|    0.824000|    0.012163|
|         671|   -7.439750|   -9.461105|    0.824000|    0.012163|
|         672|   -7.451779|   -9.467449|    0.824000|    0.012163|
|         673|   -7.463477|   -9.473858|    0.824000|    0.012163|
|         674|   -7.474766|   -9.480286|    0.824000|    0.012163|
|         675|   -7.485556|   -9.486684|    0.824000|    0.012163|
|         676|   -7.495755|   -9.493002|    0.824000|    0.012163|
|         677|   -7.505269|   -9.499195|    0.824000|    0.012163|
|         678|   -7.514016|   -9.505215|    0.824000|    0.012163|
|         679|   -7.521927|   -9.511024|    0.824000|    0.012163|
|         680|   -7.528960|   -9.516588|    0.824000|    0.012163|
|         681|   -7.535096|   -9.521886|    0.824000|    0.012163|
|         682|   -7.540345|   -9.526904|    0.824000|    0.012163|
|         683|   -7.544741|   -9.531644|    0.824000|    0.012163|
|         684|   -7.548343|   -9.536118|    0.824000|    0.012163|
|         685|   -7.551223|   -9.540353|    0.824000|    0.012163|
|         686|   -7.553472|   -9.544387|    0.824000|    0.012163|
|         687|   -7.555184|   -9.548268|    0.824000|    0.012163|
|         688|   -7.556459|   -9.552054|    0.824000|    0.012163|
|         689|   -7.557394|   -9.555809|    0.824000|    0.012163|
|         690|   -7.558083|   -9.559600|    0.824000|    0.012163|
|         691|   -7.558612|   -9.563496|    0.824000|    0.012163|
|         692|   -7.559059|   -9.567563|    0.824000|    0.012163|
|         693|   -7.559489|   -9.571864|    0.824000|    0.012163|
|         694|   -7.559956|   -9.576457|    0.824000|    0.012163|
|         695|   -7.560504|   -9.581391|    0.824000|    0.012163|
|         696|   -7.561164|   -9.586705|    0.824000|    0.012163|
|         697|   -7.561956|   -9.592429|    0.824000|    0.012163|
|         698|   -7.562891|   -9.598580|    0.824000|    0.012163|
|         699|   -7.563968|   -9.605160|    0.824000|    0.012163|
|         700|   -7.565183|   -9.612161|    0.824000|    0.012163|
|         701|   -7.566522|   -9.619559|    0.824000|    0.012163|
|         702|   -7.567967|   -9.627314|    0.824000|    0.012163|
|         703|   -7.569497|   -9.635374|    0.824000|    0.012163|
|         704|   -7.571086|   -9.643672|    0.823999|    0.012163|
|         705|   -7.572708|   -9.652127|    0.823999|    0.012163|
|         706|   -7.574337|   -9.660647|    0.823999|    0.012163|
|         707|   -7.575945|   -9.669131|    0.823999|    0.012163|
|         708|   -7.577509|   -9.677472|    0.823999|    0.012163|
|         709|   -7.579006|   -9.685560|    0.823999|    0.012163|
|         710|   -7.580415|   -9.693288|    0.823999|    0.012163|
|         711|   -7.581720|   -9.700560|    0.823999|    0.012163|
|         712|   -7.582907|   -9.707289|    0.823999|    0.012163|
|         713|   -7.583969|   -9.713409|    0.823999|    0.012163|
|         714|   -7.584899|   -9.718875|    0.823999|    0.012163|
|         715|   -7.585696|   -9.723669|    0.823999|    0.012163|
|         716|   -7.586362|   -9.727795|    0.823999|    0.012163|
|         717|   -7.586900|   -9.731286|    0.823999|    0.012163|
|         718|   -7.587318|   -9.734195|    0.823999|    0.012163|
|         719|   -7.587624|   -9.736595|    0.823999|    0.012163|
|         720|   -7.587828|   -9.738570|    0.823999|    0.012163|
|         721|   -7.587940|   -9.740216|    0.823999|    0.012163|
|         722|   -7.587969|   -9.741630|    0.823999|    0.012163|
|         723|   -7.587924|   -9.742909|    0.823999|    0.012163|
|         724|   -7.587814|   -9.744144|    0.823999|    0.012163|
|         725|   -7.587645|   -9.745417|    0.823999|    0.012163|
|         726|   -7.587422|   -9.746802|    0.823999|    0.012163|
|         727|   -7.587148|   -9.748360|    0.823999|    0.012163|
|         728|   -7.586826|   -9.750137|    0.823999|    0.012163|
|         729|   -7.586455|   -9.752169|    0.823999|    0.012163|
|         730|   -7.586037|   -9.754477|    0.823999|    0.012163|
|         731|   -7.585567|   -9.757069|    0.823999|    0.012163|
|         732|   -7.585045|   -9.759940|    0.823999|    0.012163|
|         733|   -7.584468|   -9.763074|    0.823999|    0.012163|
|         734|   -7.583833|   -9.766445|    0.823999|    0.012163|
|         735|   -7.583135|   -9.770016|    0.823999|    0.012163|
|         736|   -7.582373|   -9.773740|    0.823999|    0.012163|
|         737|   -7.581545|   -9.777565|    0.823999|    0.012163|
|         738|   -7.580647|   -9.781432|    0.823999|    0.012163|
|         739|   -7.579678|   -9.785282|    0.823999|    0.012163|
|         740|   -7.578637|   -9.789050|    0.823999|    0.012163|
|         741|   -7.577524|   -9.792677|    0.823999|    0.012163|
|         742|   -7.576340|   -9.796105|    0.823999|    0.012163|
|         743|   -7.575086|   -9.799286|    0.823999|    0.012163|
|         744|   -7.573764|   -9.802178|    0.823999|    0.012163|
|         745|   -7.572377|   -9.804751|    0.823999|    0.012163|
|         746|   -7.570929|   -9.806990|    0.823999|    0.012163|
|         747|   -7.569425|   -9.808890|    0.823999|    0.012163|
|         748|   -7.567871|   -9.810462|    0.823999|    0.012163|
|         749|   -7.566273|   -9.811729|    0.823999|    0.012163|
|         750|   -7.564640|   -9.812724|    0.823999|    0.012163|
|         751|   -7.562979|   -9.813491|    0.823999|    0.012163|
|         752|   -7.561298|   -9.814081|    0.823999|    0.012163|
|         753|   -7.559609|   -9.814548|    0.823999|    0.012163|
|         754|   -7.557920|   -9.814951|    0.823999|    0.012163|
|         755|   -7.556242|   -9.815345|    0.823999|    0.012163|
|         756|   -7.554586|   -9.815784|    0.823999|    0.012163|
|         757|   -7.552961|   -9.816319|    0.823999|    0.012163|
|         758|   -7.551378|   -9.816994|    0.823999|    0.012163|
|         759|   -7.549847|   -9.817848|    0.823999|    0.012163|
|         760|   -7.548378|   -9.818910|    0.823999|    0.012163|
|         761|   -7.546979|   -9.820206|    0.823999|    0.012163|
|         762|   -7.545660|   -9.821753|    0.823999|    0.012163|
|         763|   -7.544427|   -9.823560|    0.823999|    0.012163|
|         764|   -7.543287|   -9.825633|    0.823999|    0.012163|
|         765|   -7.542247|   -9.827972|    0.823999|    0.012163|
|         766|   -7.541311|   -9.830573|    0.823999|    0.012163|
|         767|   -7.540484|   -9.833429|    0.823999|    0.012163|
|         768|   -7.539769|   -9.836531|    0.823999|    0.012163|
|         769|   -7.539168|   -9.839869|    0.823999|    0.012163|
|         770|   -7.538681|   -9.843435|    0.823999|    0.012163|
|         771|   -7.538311|   -9.847219|    0.823999|    0.012163|
|         772|   -7.538057|   -9.851214|    0.823999|    0.012163|
|         773|   -7.537917|   -9.855416|    0.823999|    0.012163|
|         774|   -7.537891|   -9.859821|    0.823999|    0.012163|
|         775|   -7.537975|   -9.864426|    0.823999|    0.012163|
|         776|   -7.538169|   -9.869232|    0.823999|    0.012163|
|         777|   -7.538469|   -9.874238|    0.823999|    0.012163|
|         778|   -7.538872|   -9.879444|    0.823999|    0.012163|
|         779|   -7.539375|   -9.884847|    0.823999|    0.012163|
|         780|   -7.539976|   -9.890443|    0.823999|    0.012163|
|         781|   -7.540671|   -9.896223|    0.823999|    0.012163|
|         782|   -7.541457|   -9.902172|    0.823999|    0.012163|
|         783|   -7.542332|   -9.908272|    0.823999|    0.012163|
|         784|   -7.543294|   -9.914495|    0.823999|    0.012163|
|         785|   -7.544341|   -9.920810|    0.823999|    0.012163|
|         786|   -7.545470|   -9.927176|    0.823999|    0.012163|
|         787|   -7.546681|   -9.933548|    0.823999|    0.012163|
|         788|   -7.547971|   -9.939878|    0.823999|    0.012163|
|         789|   -7.549339|   -9.946112|    0.823999|    0.012163|
|         790|   -7.550784|   -9.952199|    0.823999|    0.012163|
|         791|   -7.552304|   -9.958091|    0.823999|    0.012163|
|         792|   -7.553898|   -9.963743|    0.823999|    0.012163|
|         793|   -7.555563|   -9.969122|    0.823999|    0.012163|
|         794|   -7.557297|   -9.974207|    0.823999|    0.012163|
|         795|   -7.559096|   -9.978987|    0.823999|    0.012163|
|         796|   -7.560955|   -9.983471|    0.823999|    0.012163|
|         797|   -7.562869|   -9.987682|    0.823999|    0.012163|
|         798|   -7.564832|   -9.991656|    0.823999|    0.012163|
|         799|   -7.566835|   -9.995445|    0.823999|    0.012163|
|         800|   -7.568868|   -9.999109|    0.823999|    0.012163|
|         801|   -7.570922|  -10.002718|    0.823999|    0.012163|
+-----------------------------------------------------------------------+
|Fixed CL Mode                           |Value                         |
+-----------------------------------------------------------------------+
|Current CL                              |0.823999                      |
|Target CL                               |0.824                         |
|Previous AOA                            |2.78129                       |
|Changed AoA by                          |4.55246e-06                   |
+-----------------------------------------------------------------------+
+----------------------------------------------------------------+
|  Inner_Iter|    rms[Rho]|     rms[nu]|          CL|          CD|
+----------------------------------------------------------------+
|         802|   -5.535062|   -9.597376|    0.823999|    0.012163|
|         803|   -5.918903|   -9.719724|    0.823999|    0.012163|
|         804|   -6.161449|   -9.773965|    0.823999|    0.012163|
|         805|   -6.239882|   -9.810197|    0.823999|    0.012163|
|         806|   -6.293794|   -9.839960|    0.823999|    0.012163|
|         807|   -6.363837|   -9.866124|    0.823999|    0.012163|
|         808|   -6.450553|   -9.889431|    0.823999|    0.012163|
|         809|   -6.541470|   -9.910269|    0.823999|    0.012163|
|         810|   -6.620269|   -9.928843|    0.823999|    0.012163|
|         811|   -6.678389|   -9.944740|    0.823999|    0.012163|
|         812|   -6.717048|   -9.957614|    0.823999|    0.012163|
|         813|   -6.739747|   -9.967964|    0.823999|    0.012163|
|         814|   -6.750167|   -9.976880|    0.823999|    0.012163|
|         815|   -6.754226|   -9.985267|    0.823999|    0.012163|
|         816|   -6.758751|   -9.993365|    0.823999|    0.012163|
|         817|   -6.768372|  -10.000986|    0.823999|    0.012163|
|         818|   -6.784228|  -10.007977|    0.823999|    0.012163|
|         819|   -6.804544|  -10.014554|    0.823999|    0.012163|
|         820|   -6.826154|  -10.021123|    0.823999|    0.012163|
|         821|   -6.846360|  -10.028021|    0.823999|    0.012163|
|         822|   -6.864258|  -10.035323|    0.823999|    0.012163|
|         823|   -6.880679|  -10.042949|    0.823999|    0.012163|
|         824|   -6.897014|  -10.050397|    0.823999|    0.012163|
|         825|   -6.914107|  -10.057167|    0.823999|    0.012163|
|         826|   -6.931884|  -10.062850|    0.823999|    0.012163|
|         827|   -6.949591|  -10.067172|    0.823999|    0.012163|
|         828|   -6.966246|  -10.069994|    0.823999|    0.012163|
|         829|   -6.980979|  -10.071307|    0.823999|    0.012163|
|         830|   -6.993221|  -10.071208|    0.823999|    0.012163|
|         831|   -7.002800|  -10.069860|    0.823999|    0.012163|
|         832|   -7.010010|  -10.067457|    0.823999|    0.012163|
|         833|   -7.015586|  -10.064184|    0.823999|    0.012163|
|         834|   -7.020549|  -10.060186|    0.823999|    0.012163|
|         835|   -7.025956|  -10.055553|    0.823999|    0.012163|
|         836|   -7.032665|  -10.050376|    0.823999|    0.012163|
|         837|   -7.041192|  -10.044679|    0.823999|    0.012163|
|         838|   -7.051657|  -10.038449|    0.823999|    0.012163|
|         839|   -7.063787|  -10.031714|    0.823999|    0.012163|
|         840|   -7.076960|  -10.024511|    0.823999|    0.012163|
|         841|   -7.090297|  -10.016894|    0.823999|    0.012163|
|         842|   -7.102830|  -10.008946|    0.823999|    0.012163|
|         843|   -7.113740|  -10.000769|    0.823999|    0.012163|
|         844|   -7.122595|   -9.992474|    0.823999|    0.012163|
|         845|   -7.129493|   -9.984170|    0.823999|    0.012163|
|         846|   -7.135009|   -9.975955|    0.823999|    0.012163|
|         847|   -7.139992|   -9.967904|    0.823999|    0.012163|
|         848|   -7.145313|   -9.960051|    0.823999|    0.012163|
|         849|   -7.151655|   -9.952463|    0.823999|    0.012163|
|         850|   -7.159409|   -9.945181|    0.823999|    0.012163|
|         851|   -7.168647|   -9.938186|    0.823999|    0.012163|
|         852|   -7.179173|   -9.931492|    0.823999|    0.012163|
|         853|   -7.190600|   -9.925126|    0.823999|    0.012163|
|         854|   -7.202456|   -9.919122|    0.823999|    0.012163|
|         855|   -7.214285|   -9.913529|    0.823999|    0.012163|
|         856|   -7.225745|   -9.908408|    0.823999|    0.012163|
|         857|   -7.236659|   -9.903834|    0.823999|    0.012163|
|         858|   -7.247021|   -9.899897|    0.823999|    0.012163|
|         859|   -7.256970|   -9.896697|    0.823999|    0.012163|
|         860|   -7.266720|   -9.894344|    0.823999|    0.012163|
|         861|   -7.276503|   -9.892957|    0.823999|    0.012163|
|         862|   -7.286510|   -9.892658|    0.823999|    0.012163|
|         863|   -7.296872|   -9.893576|    0.823999|    0.012163|
|         864|   -7.307647|   -9.895841|    0.823999|    0.012163|
|         865|   -7.318833|   -9.899582|    0.823999|    0.012163|
|         866|   -7.330392|   -9.904926|    0.823999|    0.012163|
|         867|   -7.342263|   -9.911995|    0.823999|    0.012163|
|         868|   -7.354387|   -9.920901|    0.823999|    0.012163|
|         869|   -7.366713|   -9.931738|    0.823999|    0.012163|
|         870|   -7.379197|   -9.944574|    0.823999|    0.012163|
|         871|   -7.391806|   -9.959433|    0.824000|    0.012163|
|         872|   -7.404502|   -9.976276|    0.824000|    0.012163|
|         873|   -7.417241|   -9.994964|    0.824000|    0.012163|
|         874|   -7.429964|  -10.015210|    0.824000|    0.012163|
|         875|   -7.442593|  -10.036518|    0.824000|    0.012163|
|         876|   -7.455033|  -10.058107|    0.824000|    0.012163|
|         877|   -7.467176|  -10.078843|    0.824000|    0.012163|
|         878|   -7.478906|  -10.097215|    0.824000|    0.012163|
|         879|   -7.490104|  -10.111438|    0.824000|    0.012163|
|         880|   -7.500657|  -10.119729|    0.824000|    0.012163|
|         881|   -7.510467|  -10.120756|    0.824000|    0.012163|
|         882|   -7.519450|  -10.114068|    0.824000|    0.012163|
|         883|   -7.527546|  -10.100268|    0.824000|    0.012163|
|         884|   -7.534721|  -10.080799|    0.824000|    0.012163|
|         885|   -7.540966|  -10.057492|    0.824000|    0.012163|
|         886|   -7.546301|  -10.032139|    0.824000|    0.012163|
|         887|   -7.550770|  -10.006235|    0.824000|    0.012163|
|         888|   -7.554443|   -9.980903|    0.824000|    0.012163|
|         889|   -7.557405|   -9.956920|    0.824000|    0.012163|
|         890|   -7.559755|   -9.934795|    0.824000|    0.012163|
|         891|   -7.561601|   -9.914835|    0.824000|    0.012163|
|         892|   -7.563051|   -9.897214|    0.824000|    0.012163|
|         893|   -7.564211|   -9.882018|    0.824000|    0.012163|
|         894|   -7.565182|   -9.869273|    0.824000|    0.012163|
|         895|   -7.566055|   -9.858969|    0.824000|    0.012163|
|         896|   -7.566908|   -9.851074|    0.824000|    0.012163|
|         897|   -7.567810|   -9.845544|    0.824000|    0.012163|
|         898|   -7.568814|   -9.842325|    0.824000|    0.012163|
|         899|   -7.569964|   -9.841358|    0.824000|    0.012163|
|         900|   -7.571293|   -9.842578|    0.824000|    0.012163|
|         901|   -7.572823|   -9.845914|    0.824000|    0.012163|
|         902|   -7.574567|   -9.851287|    0.824000|    0.012163|
|         903|   -7.576534|   -9.858607|    0.824000|    0.012163|
|         904|   -7.578723|   -9.867763|    0.824000|    0.012163|
|         905|   -7.581131|   -9.878626|    0.824000|    0.012163|
|         906|   -7.583751|   -9.891031|    0.824000|    0.012163|
|         907|   -7.586575|   -9.904776|    0.824000|    0.012163|
|         908|   -7.589592|   -9.919606|    0.824000|    0.012163|
|         909|   -7.592791|   -9.935209|    0.824000|    0.012163|
|         910|   -7.596165|   -9.951201|    0.824000|    0.012163|
|         911|   -7.599703|   -9.967129|    0.824000|    0.012163|
|         912|   -7.603401|   -9.982476|    0.824000|    0.012163|
|         913|   -7.607255|   -9.996681|    0.824000|    0.012163|
|         914|   -7.611264|  -10.009177|    0.824000|    0.012163|
|         915|   -7.615431|  -10.019447|    0.824000|    0.012163|
|         916|   -7.619761|  -10.027084|    0.824000|    0.012163|
|         917|   -7.624260|  -10.031851|    0.823999|    0.012163|
|         918|   -7.628940|  -10.033715|    0.823999|    0.012163|
|         919|   -7.633810|  -10.032848|    0.823999|    0.012163|
|         920|   -7.638883|  -10.029597|    0.823999|    0.012163|
|         921|   -7.644171|  -10.024424|    0.823999|    0.012163|
|         922|   -7.649685|  -10.017845|    0.823999|    0.012163|
|         923|   -7.655434|  -10.010374|    0.823999|    0.012163|
|         924|   -7.661426|  -10.002483|    0.823999|    0.012163|
|         925|   -7.667664|   -9.994578|    0.823999|    0.012163|
|         926|   -7.674147|   -9.986991|    0.823999|    0.012163|
|         927|   -7.680869|   -9.979982|    0.823999|    0.012163|
|         928|   -7.687818|   -9.973745|    0.823999|    0.012163|
|         929|   -7.694976|   -9.968419|    0.823999|    0.012163|
|         930|   -7.702318|   -9.964094|    0.823999|    0.012163|
|         931|   -7.709813|   -9.960819|    0.823999|    0.012163|
[...]
|        5298|   -6.047849|   -7.941778|    0.824236|    0.012167|
|        5299|   -6.054513|   -7.946473|    0.824236|    0.012167|
|        5300|   -6.060831|   -7.951199|    0.824236|    0.012167|
|        5301|   -6.066766|   -7.955969|    0.824236|    0.012167|
|        5302|   -6.072289|   -7.960796|    0.824236|    0.012167|
|        5303|   -6.077380|   -7.965687|    0.824236|    0.012167|
|        5304|   -6.082032|   -7.970649|    0.824237|    0.012167|
|        5305|   -6.086247|   -7.975684|    0.824237|    0.012167|
|        5306|   -6.090036|   -7.980793|    0.824237|    0.012167|
|        5307|   -6.093424|   -7.985978|    0.824237|    0.012167|
|        5308|   -6.096440|   -7.991238|    0.824237|    0.012167|
|        5309|   -6.099122|   -7.996571|    0.824237|    0.012167|
|        5310|   -6.101515|   -8.001977|    0.824237|    0.012167|
|        5311|   -6.103668|   -8.007457|    0.824237|    0.012167|
|        5312|   -6.105629|   -8.013010|    0.824237|    0.012167|
|        5313|   -6.107452|   -8.018637|    0.824237|    0.012167|
|        5314|   -6.109186|   -8.024343|    0.824237|    0.012167|
|        5315|   -6.110882|   -8.030131|    0.824238|    0.012167|
|        5316|   -6.112586|   -8.036005|    0.824238|    0.012167|
|        5317|   -6.114339|   -8.041971|    0.824238|    0.012167|
|        5318|   -6.116181|   -8.048035|    0.824238|    0.012167|
|        5319|   -6.118144|   -8.054205|    0.824238|    0.012167|
|        5320|   -6.120254|   -8.060487|    0.824238|    0.012167|
|        5321|   -6.122533|   -8.066887|    0.824238|    0.012167|
|        5322|   -6.124994|   -8.073412|    0.824238|    0.012167|
|        5323|   -6.127647|   -8.080065|    0.824238|    0.012167|
|        5324|   -6.130492|   -8.086851|    0.824239|    0.012167|
|        5325|   -6.133525|   -8.093770|    0.824239|    0.012167|
|        5326|   -6.136735|   -8.100825|    0.824239|    0.012168|
|        5327|   -6.140105|   -8.108012|    0.824239|    0.012168|
|        5328|   -6.143612|   -8.115329|    0.824239|    0.012168|
|        5329|   -6.147229|   -8.122769|    0.824239|    0.012168|
|        5330|   -6.150923|   -8.130325|    0.824239|    0.012168|
|        5331|   -6.154658|   -8.137987|    0.824239|    0.012168|
|        5332|   -6.158396|   -8.145744|    0.824240|    0.012168|
|        5333|   -6.162098|   -8.153584|    0.824240|    0.012168|
|        5334|   -6.165721|   -8.161493|    0.824240|    0.012168|
|        5335|   -6.169227|   -8.169457|    0.824240|    0.012168|
|        5336|   -6.172579|   -8.177462|    0.824240|    0.012168|
|        5337|   -6.175742|   -8.185491|    0.824240|    0.012168|
|        5338|   -6.178690|   -8.193532|    0.824240|    0.012169|
|        5339|   -6.181399|   -8.201569|    0.824240|    0.012169|
|        5340|   -6.183855|   -8.209590|    0.824240|    0.012169|
|        5341|   -6.186051|   -8.217583|    0.824241|    0.012169|
|        5342|   -6.187989|   -8.225538|    0.824241|    0.012169|
|        5343|   -6.189677|   -8.233444|    0.824241|    0.012169|
|        5344|   -6.191133|   -8.241294|    0.824241|    0.012169|
|        5345|   -6.192382|   -8.249081|    0.824241|    0.012169|
|        5346|   -6.193456|   -8.256801|    0.824241|    0.012169|
|        5347|   -6.194389|   -8.264450|    0.824241|    0.012169|
|        5348|   -6.195223|   -8.272024|    0.824241|    0.012169|
|        5349|   -6.196000|   -8.279522|    0.824241|    0.012169|
|        5350|   -6.196765|   -8.286944|    0.824241|    0.012169|
|        5351|   -6.197562|   -8.294288|    0.824241|    0.012169|
|        5352|   -6.198435|   -8.301556|    0.824241|    0.012169|
|        5353|   -6.199425|   -8.308746|    0.824241|    0.012170|
|        5354|   -6.200573|   -8.315860|    0.824241|    0.012170|
|        5355|   -6.201915|   -8.322895|    0.824241|    0.012170|
|        5356|   -6.203482|   -8.329856|    0.824241|    0.012170|
|        5357|   -6.205303|   -8.336741|    0.824241|    0.012170|
|        5358|   -6.207402|   -8.343548|    0.824241|    0.012170|
|        5359|   -6.209798|   -8.350272|    0.824241|    0.012170|
|        5360|   -6.212506|   -8.356907|    0.824241|    0.012170|
|        5361|   -6.215534|   -8.363445|    0.824241|    0.012170|
|        5362|   -6.218888|   -8.369880|    0.824241|    0.012170|
|        5363|   -6.222567|   -8.376203|    0.824241|    0.012170|
|        5364|   -6.226565|   -8.382405|    0.824241|    0.012170|
|        5365|   -6.230873|   -8.388477|    0.824241|    0.012170|
|        5366|   -6.235475|   -8.394412|    0.824241|    0.012170|
|        5367|   -6.240351|   -8.400200|    0.824241|    0.012170|
|        5368|   -6.245476|   -8.405834|    0.824241|    0.012169|
|        5369|   -6.250821|   -8.411307|    0.824240|    0.012169|
|        5370|   -6.256351|   -8.416614|    0.824240|    0.012169|
|        5371|   -6.262029|   -8.421751|    0.824240|    0.012169|
|        5372|   -6.267813|   -8.426715|    0.824240|    0.012169|
|        5373|   -6.273659|   -8.431507|    0.824240|    0.012169|
|        5374|   -6.279520|   -8.436130|    0.824240|    0.012169|
|        5375|   -6.285347|   -8.440587|    0.824240|    0.012169|
|        5376|   -6.291091|   -8.444886|    0.824240|    0.012169|
|        5377|   -6.296704|   -8.449036|    0.824240|    0.012169|
|        5378|   -6.302137|   -8.453049|    0.824240|    0.012169|
|        5379|   -6.307348|   -8.456940|    0.824240|    0.012169|
|        5380|   -6.312295|   -8.460724|    0.824240|    0.012169|
|        5381|   -6.316943|   -8.464418|    0.824240|    0.012169|
|        5382|   -6.321261|   -8.468040|    0.824239|    0.012169|
|        5383|   -6.325226|   -8.471608|    0.824239|    0.012169|
|        5384|   -6.328822|   -8.475135|    0.824239|    0.012168|
|        5385|   -6.332039|   -8.478641|    0.824239|    0.012168|
|        5386|   -6.334876|   -8.482143|    0.824239|    0.012168|
|        5387|   -6.337337|   -8.485658|    0.824239|    0.012168|
|        5388|   -6.339432|   -8.489199|    0.824239|    0.012168|
|        5389|   -6.341179|   -8.492783|    0.824239|    0.012168|
|        5390|   -6.342597|   -8.496418|    0.824239|    0.012168|
|        5391|   -6.343710|   -8.500104|    0.824239|    0.012168|
|        5392|   -6.344544|   -8.503837|    0.824239|    0.012168|
|        5393|   -6.345125|   -8.507614|    0.824239|    0.012168|
|        5394|   -6.345480|   -8.511426|    0.824239|    0.012167|
|        5395|   -6.345636|   -8.515260|    0.824240|    0.012167|
|        5396|   -6.345616|   -8.519102|    0.824240|    0.012167|
|        5397|   -6.345445|   -8.522934|    0.824240|    0.012167|
|        5398|   -6.345143|   -8.526732|    0.824240|    0.012167|
|        5399|   -6.344729|   -8.530475|    0.824240|    0.012167|
|        5400|   -6.344218|   -8.534138|    0.824240|    0.012167|
|        5401|   -6.343624|   -8.537693|    0.824240|    0.012167|
|        5402|   -6.342959|   -8.541117|    0.824240|    0.012167|
|        5403|   -6.342233|   -8.544384|    0.824240|    0.012167|
|        5404|   -6.341452|   -8.547471|    0.824240|    0.012166|
|        5405|   -6.340629|   -8.550363|    0.824240|    0.012166|
|        5406|   -6.339762|   -8.553045|    0.824241|    0.012166|
|        5407|   -6.338857|   -8.555513|    0.824241|    0.012166|
|        5408|   -6.337916|   -8.557770|    0.824241|    0.012166|
|        5409|   -6.336942|   -8.559803|    0.824241|    0.012166|
|        5410|   -6.335938|   -8.561603|    0.824241|    0.012166|
|        5411|   -6.334906|   -8.563166|    0.824241|    0.012166|
|        5412|   -6.333850|   -8.564494|    0.824241|    0.012166|
|        5413|   -6.332773|   -8.565594|    0.824241|    0.012166|
|        5414|   -6.331679|   -8.566480|    0.824241|    0.012166|
|        5415|   -6.330572|   -8.567167|    0.824241|    0.012166|
|        5416|   -6.329459|   -8.567674|    0.824242|    0.012166|
|        5417|   -6.328344|   -8.568020|    0.824242|    0.012165|
|        5418|   -6.327234|   -8.568223|    0.824242|    0.012165|
|        5419|   -6.326135|   -8.568302|    0.824242|    0.012165|
|        5420|   -6.325056|   -8.568272|    0.824242|    0.012165|
|        5421|   -6.324004|   -8.568149|    0.824242|    0.012165|
|        5422|   -6.322989|   -8.567944|    0.824242|    0.012165|
|        5423|   -6.322021|   -8.567669|    0.824242|    0.012165|
|        5424|   -6.321109|   -8.567333|    0.824242|    0.012165|
|        5425|   -6.320266|   -8.566944|    0.824242|    0.012165|
|        5426|   -6.319503|   -8.566509|    0.824242|    0.012165|
|        5427|   -6.318834|   -8.566034|    0.824242|    0.012165|
|        5428|   -6.318271|   -8.565526|    0.824242|    0.012165|
|        5429|   -6.317830|   -8.564991|    0.824242|    0.012165|
|        5430|   -6.317525|   -8.564433|    0.824242|    0.012165|
|        5431|   -6.317369|   -8.563860|    0.824242|    0.012165|
|        5432|   -6.317379|   -8.563277|    0.824242|    0.012165|
|        5433|   -6.317570|   -8.562693|    0.824242|    0.012165|
|        5434|   -6.317955|   -8.562115|    0.824242|    0.012165|
|        5435|   -6.318550|   -8.561551|    0.824242|    0.012165|
|        5436|   -6.319368|   -8.561011|    0.824242|    0.012165|
|        5437|   -6.320422|   -8.560506|    0.824242|    0.012165|
|        5438|   -6.321725|   -8.560046|    0.824242|    0.012165|
|        5439|   -6.323286|   -8.559643|    0.824242|    0.012165|
|        5440|   -6.325115|   -8.559309|    0.824242|    0.012165|
|        5441|   -6.327220|   -8.559055|    0.824242|    0.012165|
|        5442|   -6.329604|   -8.558893|    0.824242|    0.012165|
|        5443|   -6.332272|   -8.558833|    0.824242|    0.012165|
|        5444|   -6.335224|   -8.558887|    0.824242|    0.012165|
|        5445|   -6.338457|   -8.559064|    0.824242|    0.012165|
|        5446|   -6.341966|   -8.559374|    0.824241|    0.012166|
|        5447|   -6.345743|   -8.559824|    0.824241|    0.012166|
|        5448|   -6.349776|   -8.560422|    0.824241|    0.012166|
|        5449|   -6.354050|   -8.561173|    0.824241|    0.012166|
|        5450|   -6.358544|   -8.562081|    0.824241|    0.012166|
|        5451|   -6.363237|   -8.563149|    0.824241|    0.012166|
|        5452|   -6.368101|   -8.564379|    0.824241|    0.012166|
|        5453|   -6.373106|   -8.565770|    0.824241|    0.012166|
|        5454|   -6.378217|   -8.567321|    0.824240|    0.012166|
|        5455|   -6.383396|   -8.569030|    0.824240|    0.012166|
|        5456|   -6.388602|   -8.570893|    0.824240|    0.012166|
|        5457|   -6.393791|   -8.572907|    0.824240|    0.012166|
|        5458|   -6.398917|   -8.575066|    0.824240|    0.012166|
|        5459|   -6.403931|   -8.577363|    0.824240|    0.012166|
|        5460|   -6.408787|   -8.579794|    0.824239|    0.012167|
|        5461|   -6.413435|   -8.582352|    0.824239|    0.012167|
|        5462|   -6.417829|   -8.585029|    0.824239|    0.012167|
|        5463|   -6.421926|   -8.587818|    0.824239|    0.012167|
|        5464|   -6.425686|   -8.590711|    0.824239|    0.012167|
|        5465|   -6.429074|   -8.593700|    0.824238|    0.012167|
|        5466|   -6.432061|   -8.596777|    0.824238|    0.012167|
|        5467|   -6.434626|   -8.599932|    0.824238|    0.012167|
|        5468|   -6.436754|   -8.603156|    0.824238|    0.012167|
|        5469|   -6.438441|   -8.606441|    0.824237|    0.012167|
|        5470|   -6.439688|   -8.609777|    0.824237|    0.012167|
|        5471|   -6.440505|   -8.613156|    0.824237|    0.012167|
|        5472|   -6.440911|   -8.616568|    0.824237|    0.012167|
|        5473|   -6.440931|   -8.620003|    0.824237|    0.012167|
|        5474|   -6.440594|   -8.623451|    0.824236|    0.012167|
|        5475|   -6.439936|   -8.626902|    0.824236|    0.012167|
|        5476|   -6.438996|   -8.630344|    0.824236|    0.012167|
|        5477|   -6.437815|   -8.633768|    0.824235|    0.012167|
|        5478|   -6.436438|   -8.637162|    0.824235|    0.012168|
|        5479|   -6.434906|   -8.640517|    0.824235|    0.012168|
|        5480|   -6.433263|   -8.643821|    0.824235|    0.012168|
|        5481|   -6.431551|   -8.647065|    0.824234|    0.012168|
|        5482|   -6.429810|   -8.650239|    0.824234|    0.012168|
|        5483|   -6.428077|   -8.653333|    0.824234|    0.012168|
|        5484|   -6.426387|   -8.656340|    0.824234|    0.012168|
|        5485|   -6.424773|   -8.659253|    0.824233|    0.012168|
|        5486|   -6.423264|   -8.662064|    0.824233|    0.012168|
|        5487|   -6.421886|   -8.664770|    0.824233|    0.012168|
|        5488|   -6.420662|   -8.667365|    0.824233|    0.012168|
|        5489|   -6.419612|   -8.669849|    0.824233|    0.012168|
|        5490|   -6.418754|   -8.672220|    0.824232|    0.012168|
|        5491|   -6.418101|   -8.674479|    0.824232|    0.012168|
|        5492|   -6.417667|   -8.676628|    0.824232|    0.012168|
|        5493|   -6.417460|   -8.678672|    0.824232|    0.012168|
|        5494|   -6.417488|   -8.680617|    0.824231|    0.012167|
|        5495|   -6.417756|   -8.682469|    0.824231|    0.012167|
|        5496|   -6.418268|   -8.684238|    0.824231|    0.012167|
|        5497|   -6.419025|   -8.685932|    0.824231|    0.012167|
|        5498|   -6.420029|   -8.687561|    0.824231|    0.012167|
|        5499|   -6.421276|   -8.689138|    0.824231|    0.012153|
+-----------------------------------------------------------------------+
|Fixed CL Mode (Finite Difference)       |Value                         |
+-----------------------------------------------------------------------+
|Delta CL / Delta AoA                    |0.230826                      |
|Delta CD / Delta CL                     |0.0190546                     |
|Delta CMz / Delta CL                    |-0.00126091                   |
+-----------------------------------------------------------------------+
Writing Flow Meta-Data file: flow.meta

----------------------------- Solver Exit -------------------------------

Maximum number of iterations reached (ITER = 5500) before convergence.
+-----------------------------------------------------------------------+
|      Convergence Field     |     Value    |   Criterion  |  Converged |
+-----------------------------------------------------------------------+
|                    rms[Rho]|      -6.42128|         < -12|          No|
+-----------------------------------------------------------------------+
-------------------------------------------------------------------------

--------------------------- Finalizing Solver ---------------------------
Deleted CNumerics container.
Deleted CIntegration container.
Deleted CSolver container.
Deleted CIteration container.
Deleted CInterface container.
Deleted CGeometry container.
Deleted CFreeFormDefBox class.
Deleted CSurfaceMovement class.
Deleted CVolumetricMovement class.
Deleted CConfig container.
Deleted nInst container.
Deleted COutput class.
-------------------------------------------------------------------------

------------------------- Exit Success (SU2_CFD) ------------------------


-------------------------------------------------------------------------
|    ___ _   _ ___                                                      |
|   / __| | | |_  )   Release 8.0.0 "Harrier"                           |
|   \__ \ |_| |/ /                                                      |
|   |___/\___//___|   Suite (Solution Exporting Code)                   |
|                                                                       |
-------------------------------------------------------------------------
| SU2 Project Website: https://su2code.github.io                        |
|                                                                       |
| The SU2 Project is maintained by the SU2 Foundation                   |
| (http://su2foundation.org)                                            |
-------------------------------------------------------------------------
| Copyright 2012-2023, SU2 Contributors                                 |
|                                                                       |
| SU2 is free software; you can redistribute it and/or                  |
| modify it under the terms of the GNU Lesser General Public            |
| License as published by the Free Software Foundation; either          |
| version 2.1 of the License, or (at your option) any later version.    |
|                                                                       |
| SU2 is distributed in the hope that it will be useful,                |
| but WITHOUT ANY WARRANTY; without even the implied warranty of        |
| MERCHANTABILITY or FITNESS FOR A PARTICULAR PURPOSE. See the GNU      |
| Lesser General Public License for more details.                       |
|                                                                       |
| You should have received a copy of the GNU Lesser General Public      |
| License along with SU2. If not, see <http://www.gnu.org/licenses/>.   |
-------------------------------------------------------------------------

----------------- Physical Case Definition ( Zone 0 ) -------------------
Input mesh file name: mesh_RAE2822_turb_deform.su2

-------------------- Output Information ( Zone 0 ) ----------------------
The tabular file format is CSV (.csv).
Flow variables file name: flow.

------------- Config File Boundary Information ( Zone 0 ) ---------------
+-----------------------------------------------------------------------+
|                        Marker Type|                        Marker Name|
+-----------------------------------------------------------------------+
|                          Far-field|                           FARFIELD|
+-----------------------------------------------------------------------+
|                     Heat flux wall|                            AIRFOIL|
+-----------------------------------------------------------------------+
Two dimensional problem.
13937 grid points before partitioning.
22842 volume elements before partitioning.
2 surface markers.
192 boundary elements in index 0 (Marker = AIRFOIL).
40 boundary elements in index 1 (Marker = FARFIELD).
Executing the partitioning functions.
Building the graph adjacency structure.
Calling ParMETIS... graph partitioning complete (831 edge cuts).
Distributing ParMETIS coloring.
Rebalancing vertices.
Rebalancing volume element connectivity.
Rebalancing markers and surface elements.
14875 vertices including ghost points. 
23674 interior elements including halo cells. 
18780 triangles.
4894 quadrilaterals.
Establishing MPI communication patterns.
Identify vertices.
Storing a mapping from global to local point index.

------------------------- Solution Postprocessing -----------------------
Reading and storing the solution from restart_flow.
Volume output fields: COORDINATES, SOLUTION
  Info: Ignoring the following screen output fields:
  RMS_DENSITY, RMS_NU_TILDE, LIFT, DRAG
Screen output fields: INNER_ITER
  Info: Ignoring the following history output groups:
  RMS_RES, AERO_COEFF
History output group(s): ITER
Warning: No (valid) fields chosen for convergence monitoring. Convergence monitoring inactive.
Warning: No (valid) fields chosen for time convergence monitoring. Time convergence monitoring inactive.
|Paraview                           |flow.vtu                           |
|Paraview surface                   |surface_flow.vtu                   |
|CSV file                           |surface_flow.csv                   |

------------------------- Finalize Solver -------------------------
Deleted CGeometry container.
Deleted CSolver class.
Deleted CConfig container.
Deleted COutput class.

Completed in 0.022278 seconds on 6 cores.

------------------------- Exit Success (SU2_SOL) ------------------------

