
-------------------------------------------------------------------------
|    ___ _   _ ___                                                      |
|   / __| | | |_  )   Release 8.0.0 "Harrier"                           |
|   \__ \ |_| |/ /                                                      |
|   |___/\___//___|   Suite (Computational Fluid Dynamics Code)         |
|                                                                       |
-------------------------------------------------------------------------
| SU2 Project Website: https://su2code.github.io                        |
|                                                                       |
| The SU2 Project is maintained by the SU2 Foundation                   |
| (http://su2foundation.org)                                            |
-------------------------------------------------------------------------
| Copyright 2012-2023, SU2 Contributors                                 |
|                                                                       |
| SU2 is free software; you can redistribute it and/or                  |
| modify it under the terms of the GNU Lesser General Public            |
| License as published by the Free Software Foundation; either          |
| version 2.1 of the License, or (at your option) any later version.    |
|                                                                       |
| SU2 is distributed in the hope that it will be useful,                |
| but WITHOUT ANY WARRANTY; without even the implied warranty of        |
| MERCHANTABILITY or FITNESS FOR A PARTICULAR PURPOSE. See the GNU      |
| Lesser General Public License for more details.                       |
|                                                                       |
| You should have received a copy of the GNU Lesser General Public      |
| License along with SU2. If not, see <http://www.gnu.org/licenses/>.   |
-------------------------------------------------------------------------

Parsing config file for zone 0

----------------- Physical Case Definition ( Zone 0 ) -------------------
Compressible RANS equations.
Turbulence model: Spalart-Allmaras-noft2
Hybrid RANS/LES: No Hybrid RANS/LES
Mach number: 0.734.
Angle of attack (AoA): 2.31 deg, and angle of sideslip (AoS): 0 deg.
Reynolds number: 6.5e+06. Reference length 1.
Fixed CL mode, target value: 0.824.
Reading and writing binary SU2 native restart files.
Read flow solution from: solution_flow.dat.
Dimensional simulation.
The reference area is 1 m^2.
The semi-span will be computed using the max y(3D) value.
The reference length is 1 m.
Reference origin for moment evaluation is (0.25, 0, 0).
Surface(s) where the force coefficients are evaluated: AIRFOIL.

Surface(s) plotted in the output file: AIRFOIL.
Surface(s) affected by the design variables: AIRFOIL.
Input mesh file name: mesh_RAE2822_turb_deform.su2

--------------- Space Numerical Integration ( Zone 0 ) ------------------
Jameson-Schmidt-Turkel scheme (2nd order in space) for the flow inviscid terms.
JST viscous coefficients (2nd & 4th): 0.5, 0.02.
The method includes a grid stretching correction (p = 0.3).
Scalar upwind solver for the turbulence model.
First order integration in space.
Average of gradients with correction (viscous flow terms).
Average of gradients with correction (viscous turbulence terms).
Gradient for viscous and source terms: inverse-distance weighted Least-Squares.

--------------- Time Numerical Integration  ( Zone 0 ) ------------------
Local time stepping (steady state simulation).
Euler implicit method for the flow equations.
FGMRES is used for solving the linear system.
Using a ILU(0) preconditioning.
Convergence criteria of the linear solver: 1e-06.
Max number of linear iterations: 10.
No CFL adaptation.
Courant-Friedrichs-Lewy number:       10
Euler implicit time integration for the turbulence model.

------------------ Convergence Criteria  ( Zone 0 ) ---------------------
Maximum number of solver subiterations: 5500.
Begin convergence monitoring at iteration 10.
Residual minimum value: 1e-12.
Cauchy series min. value: 1e-06.
Number of Cauchy elements: 100.
Begin windowed time average at iteration 0.

-------------------- Output Information ( Zone 0 ) ----------------------
File writing frequency: 
+------------------------------------+
|                     File| Frequency|
+------------------------------------+
|                  RESTART|     10000|
|                 PARAVIEW|     10000|
|         SURFACE_PARAVIEW|     10000|
|              SURFACE_CSV|     10000|
+------------------------------------+
Writing the convergence history file every 1 inner iterations.
Writing the screen convergence history every 1 inner iterations.
The tabular file format is CSV (.csv).
Convergence history file name: history_direct.
Forces breakdown file name: forces_breakdown.dat.
Surface file name: surface_flow.
Volume file name: flow.
Restart file name: restart_flow.dat.

------------- Config File Boundary Information ( Zone 0 ) ---------------
+-----------------------------------------------------------------------+
|                        Marker Type|                        Marker Name|
+-----------------------------------------------------------------------+
|                          Far-field|                           FARFIELD|
+-----------------------------------------------------------------------+
|                     Heat flux wall|                            AIRFOIL|
+-----------------------------------------------------------------------+

-------------------- Output Preprocessing ( Zone 0 ) --------------------

WARNING: SURFACE_PRESSURE_DROP can only be computed for at least 2 surfaces (outlet, inlet, ...)

Screen output fields: INNER_ITER, RMS_DENSITY, RMS_NU_TILDE, LIFT, DRAG
History output group(s): ITER, RMS_RES, AERO_COEFF
Convergence field(s): RMS_DENSITY
Warning: No (valid) fields chosen for time convergence monitoring. Time convergence monitoring inactive.
Volume output fields: COORDINATES, SOLUTION, PRIMITIVE

------------------- Geometry Preprocessing ( Zone 0 ) -------------------
Two dimensional problem.
13937 grid points before partitioning.
22842 volume elements before partitioning.
2 surface markers.
192 boundary elements in index 0 (Marker = AIRFOIL).
40 boundary elements in index 1 (Marker = FARFIELD).
Executing the partitioning functions.
Building the graph adjacency structure.
Calling ParMETIS... graph partitioning complete (831 edge cuts).
Distributing ParMETIS coloring.
Rebalancing vertices.
Rebalancing volume element connectivity.
Rebalancing markers and surface elements.
14875 vertices including ghost points. 
23674 interior elements including halo cells. 
18780 triangles.
4894 quadrilaterals.
Establishing MPI communication patterns.
Setting point connectivity.
Renumbering points (Reverse Cuthill McKee Ordering).
Recomputing point connectivity.
Setting element connectivity.
Checking the numerical grid orientation.
All volume elements are correctly orientend.
All surface elements are correctly orientend.
Identifying edges and vertices.
Setting the control volume structure.
Area of the computational grid: 32209.9.
Searching for the closest normal neighbors to the surfaces.
Storing a mapping from global to local point index.
Compute the surface curvature.
Max K: 156.406. Mean K: 7.20694. Standard deviation K: 21.2167.
Checking for periodicity.
Computing mesh quality statistics for the dual control volumes.
+--------------------------------------------------------------+
|           Mesh Quality Metric|        Minimum|        Maximum|
+--------------------------------------------------------------+
|    Orthogonality Angle (deg.)|        75.2881|        89.9987|
|     CV Face Area Aspect Ratio|        1.00264|        3358.31|
|           CV Sub-Volume Ratio|        1.00054|        1211.33|
+--------------------------------------------------------------+
Finding max control volume width.
Communicating number of neighbors.
Wetted area = 2.02386 m.
Area projection in the x-plane = 0.123587 m, y-plane = 0.995873 m.
Max. coordinate in the x-direction = 1 m, y-direction = 0.0629075 m.
Min. coordinate in the x-direction = 0 m, y-direction = -0.0595484 m.
Computing wall distances.

-------------------- Solver Preprocessing ( Zone 0 ) --------------------
WARNING: AoA in the solution file (2.76822 deg.) +
         AoA offset in mesh file (0 deg.) = 2.76822 deg.
WARNING: SU2 will use the dCD/dCL provided in the direct solution file: 0.0359962.
WARNING: SU2 will use the dCMz/dCL provided in the direct solution file: 0.0158171.
Viscous flow: Computing pressure using the ideal gas law
based on the free-stream temperature and a density computed
from the Reynolds number.
Force coefficients computed using free-stream values.

-- Models:
+------------------------------------------------------------------------------+
|          Viscosity Model|        Conductivity Model|              Fluid Model|
+------------------------------------------------------------------------------+
|               SUTHERLAND|          CONSTANT_PRANDTL|             STANDARD_AIR|
+------------------------------------------------------------------------------+
-- Fluid properties:
+------------------------------------------------------------------------------+
|                  Name|    Dim. value|    Ref. value|      Unit|Non-dim. value|
+------------------------------------------------------------------------------+
|        Ref. Viscosity|     1.716e-05|             1|   N.s/m^2|     1.716e-05|
|      Sutherland Temp.|        273.15|             1|         K|        273.15|
|     Sutherland Const.|         110.4|             1|         K|         110.4|
+------------------------------------------------------------------------------+
|        Prandtl (Lam.)|             -|             -|         -|          0.71|
|       Prandtl (Turb.)|             -|             -|         -|           0.9|
+------------------------------------------------------------------------------+
|          Gas Constant|       287.058|             1|  N.m/kg.K|       287.058|
|      Spec. Heat Ratio|             -|             -|         -|           1.4|
+------------------------------------------------------------------------------+
-- Initial and free-stream conditions:
+------------------------------------------------------------------------------+
|                  Name|    Dim. value|    Ref. value|      Unit|Non-dim. value|
+------------------------------------------------------------------------------+
|       Static Pressure|         38515|             1|        Pa|         38515|
|               Density|      0.465631|             1|    kg/m^3|      0.465631|
|           Temperature|        288.15|             1|         K|        288.15|
|          Total Energy|        237984|             1|   m^2/s^2|        237984|
|            Velocity-X|       249.487|             1|       m/s|       249.487|
|            Velocity-Y|       12.0632|             1|       m/s|       12.0632|
|    Velocity Magnitude|       249.778|             1|       m/s|       249.778|
+------------------------------------------------------------------------------+
|             Viscosity|    1.7893e-05|             1|   N.s/m^2|    1.7893e-05|
|          Conductivity|             -|             1|   W/m^2.K|             -|
|     Turb. Kin. Energy|       233.959|             1|   m^2/s^2|       233.959|
|     Spec. Dissipation|        608834|             1|       1/s|        608834|
+------------------------------------------------------------------------------+
|           Mach Number|             -|             -|         -|         0.734|
|       Reynolds Number|             -|             -|         -|       6.5e+06|
+------------------------------------------------------------------------------+
Initialize Jacobian structure (Navier-Stokes). MG level: 0.
Initialize Jacobian structure (SA model).

------------------- Numerics Preprocessing ( Zone 0 ) -------------------

----------------- Integration Preprocessing ( Zone 0 ) ------------------

------------------- Iteration Preprocessing ( Zone 0 ) ------------------
Euler/Navier-Stokes/RANS fluid iteration.

------------------------------ Begin Solver -----------------------------

Simulation Run using the Single-zone Driver
WARNING: SU2 was not compiled for an AVX-capable architecture. Performance could be better,
         see https://su2code.github.io/docs_v7/Build-SU2-Linux-MacOS/#compiler-optimizations
+----------------------------------------------------------------+
|  Inner_Iter|    rms[Rho]|     rms[nu]|          CL|          CD|
+----------------------------------------------------------------+
|           0|   -4.495761|   -5.761511|    0.824006|    0.012607|
|           1|   -4.539483|   -5.851888|    0.823980|    0.012574|
|           2|   -4.582077|   -5.960713|    0.823940|    0.012566|
|           3|   -4.605257|   -6.083023|    0.823898|    0.012571|
|           4|   -4.611045|   -6.211372|    0.823863|    0.012581|
|           5|   -4.606928|   -6.331221|    0.823837|    0.012589|
|           6|   -4.599337|   -6.415629|    0.823817|    0.012593|
|           7|   -4.591878|   -6.444631|    0.823801|    0.012593|
|           8|   -4.585705|   -6.432083|    0.823788|    0.012589|
|           9|   -4.580645|   -6.406057|    0.823780|    0.012584|
|          10|   -4.576088|   -6.381544|    0.823777|    0.012578|
|          11|   -4.571351|   -6.362041|    0.823779|    0.012572|
|          12|   -4.565735|   -6.346517|    0.823788|    0.012568|
|          13|   -4.558582|   -6.333008|    0.823802|    0.012565|
|          14|   -4.549452|   -6.319721|    0.823821|    0.012564|
|          15|   -4.538336|   -6.305215|    0.823842|    0.012565|
|          16|   -4.525718|   -6.288331|    0.823865|    0.012568|
|          17|   -4.512424|   -6.268230|    0.823889|    0.012573|
|          18|   -4.499341|   -6.244624|    0.823912|    0.012581|
|          19|   -4.487146|   -6.217996|    0.823933|    0.012591|
|          20|   -4.476180|   -6.189490|    0.823952|    0.012602|
|          21|   -4.466451|   -6.160608|    0.823968|    0.012614|
|          22|   -4.457736|   -6.132834|    0.823980|    0.012627|
|          23|   -4.449737|   -6.107420|    0.823986|    0.012640|
|          24|   -4.442208|   -6.085270|    0.823988|    0.012653|
|          25|   -4.435040|   -6.066952|    0.823983|    0.012665|
|          26|   -4.428258|   -6.052740|    0.823972|    0.012675|
|          27|   -4.421980|   -6.042683|    0.823954|    0.012684|
|          28|   -4.416332|   -6.036657|    0.823931|    0.012690|
|          29|   -4.411392|   -6.034427|    0.823902|    0.012695|
|          30|   -4.407158|   -6.035703|    0.823868|    0.012697|
|          31|   -4.403545|   -6.040152|    0.823829|    0.012697|
|          32|   -4.400408|   -6.047465|    0.823788|    0.012696|
|          33|   -4.397581|   -6.057339|    0.823746|    0.012693|
|          34|   -4.394900|   -6.069469|    0.823703|    0.012689|
|          35|   -4.392226|   -6.083508|    0.823661|    0.012683|
|          36|   -4.389474|   -6.098992|    0.823621|    0.012678|
|          37|   -4.386606|   -6.115262|    0.823583|    0.012673|
|          38|   -4.383631|   -6.131399|    0.823550|    0.012667|
|          39|   -4.380606|   -6.146187|    0.823520|    0.012663|
|          40|   -4.377624|   -6.158250|    0.823495|    0.012659|
|          41|   -4.374798|   -6.166265|    0.823475|    0.012657|
|          42|   -4.372245|   -6.169311|    0.823459|    0.012655|
|          43|   -4.370072|   -6.167138|    0.823446|    0.012654|
|          44|   -4.368361|   -6.160232|    0.823437|    0.012654|
|          45|   -4.367158|   -6.149623|    0.823431|    0.012655|
|          46|   -4.366483|   -6.136543|    0.823426|    0.012657|
|          47|   -4.366320|   -6.122140|    0.823422|    0.012659|
|          48|   -4.366634|   -6.107287|    0.823419|    0.012661|
|          49|   -4.367385|   -6.092567|    0.823415|    0.012664|
|          50|   -4.368511|   -6.078322|    0.823411|    0.012666|
|          51|   -4.369966|   -6.064714|    0.823405|    0.012668|
|          52|   -4.371714|   -6.051819|    0.823398|    0.012669|
|          53|   -4.373719|   -6.039693|    0.823389|    0.012670|
|          54|   -4.375961|   -6.028406|    0.823378|    0.012670|
|          55|   -4.378437|   -6.018061|    0.823365|    0.012669|
|          56|   -4.381153|   -6.008783|    0.823350|    0.012668|
|          57|   -4.384114|   -6.000645|    0.823334|    0.012666|
|          58|   -4.387329|   -5.993788|    0.823316|    0.012664|
|          59|   -4.390807|   -5.988307|    0.823298|    0.012661|
|          60|   -4.394547|   -5.984211|    0.823279|    0.012658|
|          61|   -4.398534|   -5.981443|    0.823259|    0.012655|
|          62|   -4.402755|   -5.979880|    0.823240|    0.012652|
|          63|   -4.407182|   -5.979357|    0.823222|    0.012648|
|          64|   -4.411782|   -5.979650|    0.823204|    0.012645|
|          65|   -4.416523|   -5.980525|    0.823187|    0.012642|
|          66|   -4.421384|   -5.981742|    0.823170|    0.012638|
|          67|   -4.426353|   -5.983075|    0.823155|    0.012635|
|          68|   -4.431428|   -5.984330|    0.823141|    0.012633|
|          69|   -4.436612|   -5.985359|    0.823128|    0.012630|
|          70|   -4.441916|   -5.986069|    0.823116|    0.012628|
|          71|   -4.447348|   -5.986419|    0.823104|    0.012626|
|          72|   -4.452909|   -5.986412|    0.823093|    0.012624|
|          73|   -4.458583|   -5.986082|    0.823083|    0.012622|
|          74|   -4.464346|   -5.985487|    0.823073|    0.012620|
|          75|   -4.470158|   -5.984696|    0.823063|    0.012618|
|          76|   -4.475975|   -5.983775|    0.823053|    0.012617|
|          77|   -4.481753|   -5.982791|    0.823042|    0.012615|
|          78|   -4.487452|   -5.981797|    0.823032|    0.012613|
|          79|   -4.493043|   -5.980840|    0.823021|    0.012611|
|          80|   -4.498513|   -5.979956|    0.823009|    0.012609|
|          81|   -4.503869|   -5.979170|    0.822998|    0.012607|
|          82|   -4.509126|   -5.978502|    0.822985|    0.012605|
|          83|   -4.514309|   -5.977961|    0.822973|    0.012603|
|          84|   -4.519440|   -5.977550|    0.822960|    0.012601|
|          85|   -4.524534|   -5.977267|    0.822946|    0.012599|
|          86|   -4.529591|   -5.977104|    0.822933|    0.012597|
|          87|   -4.534597|   -5.977047|    0.822919|    0.012594|
|          88|   -4.539518|   -5.977082|    0.822906|    0.012592|
|          89|   -4.544311|   -5.977190|    0.822892|    0.012590|
|          90|   -4.548919|   -5.977357|    0.822879|    0.012588|
|          91|   -4.553282|   -5.977565|    0.822866|    0.012585|
|          92|   -4.557346|   -5.977804|    0.822853|    0.012583|
|          93|   -4.561059|   -5.978066|    0.822840|    0.012581|
|          94|   -4.564382|   -5.978344|    0.822828|    0.012579|
|          95|   -4.567291|   -5.978640|    0.822817|    0.012577|
|          96|   -4.569773|   -5.978958|    0.822806|    0.012575|
|          97|   -4.571827|   -5.979305|    0.822795|    0.012573|
|          98|   -4.573464|   -5.979692|    0.822785|    0.012572|
|          99|   -4.574701|   -5.980129|    0.822775|    0.012571|
|         100|   -4.575561|   -5.980630|    0.822766|    0.012569|
|         101|   -4.576072|   -5.981208|    0.822755|    0.012657|
+-----------------------------------------------------------------------+
|Fixed CL Mode                           |Value                         |
+-----------------------------------------------------------------------+
|Current CL                              |0.822755                      |
|Target CL                               |0.824                         |
|Previous AOA                            |2.76822                       |
|Changed AoA by                          |0.00617097                    |
+-----------------------------------------------------------------------+
+----------------------------------------------------------------+
|  Inner_Iter|    rms[Rho]|     rms[nu]|          CL|          CD|
+----------------------------------------------------------------+
|         102|   -2.403001|   -5.963371|    0.822747|    0.012656|
|         103|   -2.787542|   -5.973488|    0.822738|    0.012656|
|         104|   -3.032395|   -5.977051|    0.822729|    0.012656|
|         105|   -3.112260|   -5.979461|    0.822721|    0.012656|
|         106|   -3.166715|   -5.981567|    0.822712|    0.012656|
|         107|   -3.237180|   -5.983562|    0.822704|    0.012656|
|         108|   -3.324303|   -5.985518|    0.822695|    0.012657|
|         109|   -3.415263|   -5.987452|    0.822686|    0.012657|
|         110|   -3.493186|   -5.989401|    0.822676|    0.012658|
|         111|   -3.549410|   -5.991381|    0.822666|    0.012659|
|         112|   -3.585703|   -5.993405|    0.822656|    0.012660|
|         113|   -3.606249|   -5.995500|    0.822645|    0.012661|
|         114|   -3.615179|   -5.997698|    0.822634|    0.012662|
|         115|   -3.618482|   -6.000018|    0.822623|    0.012663|
|         116|   -3.622774|   -6.002456|    0.822610|    0.012664|
|         117|   -3.632431|   -6.005001|    0.822598|    0.012664|
|         118|   -3.648430|   -6.007638|    0.822585|    0.012665|
|         119|   -3.668918|   -6.010353|    0.822572|    0.012666|
|         120|   -3.690697|   -6.013135|    0.822559|    0.012667|
|         121|   -3.711049|   -6.015969|    0.822546|    0.012667|
|         122|   -3.729060|   -6.018836|    0.822532|    0.012668|
|         123|   -3.745565|   -6.021707|    0.822519|    0.012668|
|         124|   -3.761981|   -6.024553|    0.822506|    0.012668|
|         125|   -3.779201|   -6.027344|    0.822493|    0.012669|
|         126|   -3.797209|   -6.030061|    0.822480|    0.012669|
|         127|   -3.815305|   -6.032688|    0.822468|    0.012669|
|         128|   -3.832530|   -6.035218|    0.822456|    0.012670|
|         129|   -3.848007|   -6.037647|    0.822444|    0.012670|
|         130|   -3.861117|   -6.039975|    0.822433|    0.012670|
|         131|   -3.871621|   -6.042203|    0.822423|    0.012671|
|         132|   -3.879744|   -6.044328|    0.822413|    0.012671|
|         133|   -3.886179|   -6.046357|    0.822405|    0.012672|
|         134|   -3.891933|   -6.048295|    0.822397|    0.012673|
|         135|   -3.898083|   -6.050147|    0.822389|    0.012674|
|         136|   -3.905526|   -6.051912|    0.822383|    0.012675|
|         137|   -3.914821|   -6.053594|    0.822377|    0.012676|
|         138|   -3.926126|   -6.055200|    0.822373|    0.012678|
|         139|   -3.939193|   -6.056727|    0.822369|    0.012679|
|         140|   -3.953403|   -6.058176|    0.822366|    0.012681|
|         141|   -3.967856|   -6.059553|    0.822365|    0.012683|
|         142|   -3.981532|   -6.060861|    0.822364|    0.012685|
|         143|   -3.993544|   -6.062102|    0.822364|    0.012687|
|         144|   -4.003400|   -6.063276|    0.822366|    0.012689|
|         145|   -4.011163|   -6.064386|    0.822368|    0.012691|
|         146|   -4.017414|   -6.065430|    0.822372|    0.012694|
|         147|   -4.023048|   -6.066411|    0.822378|    0.012696|
|         148|   -4.028992|   -6.067339|    0.822384|    0.012699|
|         149|   -4.035988|   -6.068219|    0.822393|    0.012701|
|         150|   -4.044467|   -6.069055|    0.822403|    0.012704|
|         151|   -4.054521|   -6.069853|    0.822415|    0.012706|
|         152|   -4.065950|   -6.070621|    0.822428|    0.012709|
|         153|   -4.078344|   -6.071361|    0.822444|    0.012712|
|         154|   -4.091188|   -6.072053|    0.822462|    0.012715|
|         155|   -4.103978|   -6.072732|    0.822482|    0.012717|
|         156|   -4.116328|   -6.073420|    0.822505|    0.012720|
|         157|   -4.128027|   -6.074129|    0.822529|    0.012723|
|         158|   -4.139064|   -6.074878|    0.822556|    0.012726|
|         159|   -4.149585|   -6.075681|    0.822585|    0.012728|
|         160|   -4.159834|   -6.076557|    0.822616|    0.012731|
|         161|   -4.170076|   -6.077527|    0.822649|    0.012734|
|         162|   -4.180536|   -6.078613|    0.822684|    0.012737|
|         163|   -4.191371|   -6.079835|    0.822720|    0.012740|
|         164|   -4.202661|   -6.081215|    0.822758|    0.012743|
|         165|   -4.214418|   -6.082778|    0.822798|    0.012745|
|         166|   -4.226609|   -6.084541|    0.822838|    0.012748|
|         167|   -4.239181|   -6.086522|    0.822879|    0.012751|
|         168|   -4.252077|   -6.088732|    0.822921|    0.012754|
|         169|   -4.265249|   -6.091182|    0.822962|    0.012756|
|         170|   -4.278662|   -6.093877|    0.823004|    0.012759|
|         171|   -4.292291|   -6.096827|    0.823044|    0.012762|
|         172|   -4.306110|   -6.100030|    0.823084|    0.012764|
|         173|   -4.320087|   -6.103484|    0.823123|    0.012767|
|         174|   -4.334176|   -6.107183|    0.823160|    0.012769|
|         175|   -4.348311|   -6.111121|    0.823195|    0.012771|
|         176|   -4.362409|   -6.115284|    0.823227|    0.012773|
|         177|   -4.376372|   -6.119660|    0.823258|    0.012775|
|         178|   -4.390088|   -6.124237|    0.823285|    0.012776|
|         179|   -4.403442|   -6.129009|    0.823310|    0.012778|
|         180|   -4.416319|   -6.133966|    0.823331|    0.012779|
|         181|   -4.428611|   -6.139094|    0.823349|    0.012780|
|         182|   -4.440222|   -6.144397|    0.823364|    0.012781|
|         183|   -4.451074|   -6.149853|    0.823375|    0.012781|
|         184|   -4.461111|   -6.155455|    0.823382|    0.012781|
|         185|   -4.470301|   -6.161199|    0.823387|    0.012782|
|         186|   -4.478638|   -6.167084|    0.823387|    0.012782|
|         187|   -4.486146|   -6.173126|    0.823385|    0.012781|
|         188|   -4.492882|   -6.179344|    0.823379|    0.012781|
|         189|   -4.498914|   -6.185730|    0.823369|    0.012780|
|         190|   -4.504332|   -6.192299|    0.823357|    0.012779|
|         191|   -4.509239|   -6.199071|    0.823342|    0.012778|
|         192|   -4.513745|   -6.206074|    0.823324|    0.012777|
|         193|   -4.517957|   -6.213335|    0.823304|    0.012776|
|         194|   -4.521981|   -6.220884|    0.823282|    0.012774|
|         195|   -4.525922|   -6.228809|    0.823258|    0.012773|
|         196|   -4.529860|   -6.237086|    0.823231|    0.012771|
|         197|   -4.533877|   -6.245682|    0.823203|    0.012769|
|         198|   -4.538014|   -6.254653|    0.823174|    0.012767|
|         199|   -4.542312|   -6.264028|    0.823144|    0.012766|
|         200|   -4.546772|   -6.273826|    0.823113|    0.012764|
|         201|   -4.551401|   -6.284060|    0.823080|    0.012825|
+-----------------------------------------------------------------------+
|Fixed CL Mode                           |Value                         |
+-----------------------------------------------------------------------+
|Current CL                              |0.82308                       |
|Target CL                               |0.824                         |
|Previous AOA                            |2.77439                       |
|Changed AoA by                          |0.00443671                    |
+-----------------------------------------------------------------------+
+----------------------------------------------------------------+
|  Inner_Iter|    rms[Rho]|     rms[nu]|          CL|          CD|
+----------------------------------------------------------------+
|         202|   -2.546234|   -6.255191|    0.823047|    0.012823|
|         203|   -2.929642|   -6.284434|    0.823014|    0.012821|
|         204|   -3.170835|   -6.301324|    0.822981|    0.012819|
|         205|   -3.248532|   -6.316223|    0.822948|    0.012817|
|         206|   -3.302215|   -6.330730|    0.822915|    0.012815|
|         207|   -3.372048|   -6.345237|    0.822883|    0.012812|
|         208|   -3.458512|   -6.359751|    0.822851|    0.012810|
|         209|   -3.549353|   -6.374261|    0.822819|    0.012808|
|         210|   -3.628656|   -6.388764|    0.822789|    0.012806|
|         211|   -3.688055|   -6.403164|    0.822759|    0.012804|
|         212|   -3.728529|   -6.417437|    0.822731|    0.012802|
|         213|   -3.753115|   -6.431505|    0.822704|    0.012800|
|         214|   -3.765063|   -6.445355|    0.822677|    0.012798|
|         215|   -3.770126|   -6.458963|    0.822653|    0.012797|
|         216|   -3.775257|   -6.472267|    0.822630|    0.012795|
|         217|   -3.785317|   -6.485167|    0.822608|    0.012793|
|         218|   -3.801641|   -6.497588|    0.822588|    0.012792|
|         219|   -3.822587|   -6.509491|    0.822570|    0.012791|
|         220|   -3.845072|   -6.520877|    0.822553|    0.012789|
|         221|   -3.866447|   -6.531760|    0.822538|    0.012788|
|         222|   -3.885835|   -6.542161|    0.822525|    0.012787|
|         223|   -3.904071|   -6.552071|    0.822514|    0.012786|
|         224|   -3.922533|   -6.561434|    0.822505|    0.012785|
|         225|   -3.941997|   -6.570211|    0.822497|    0.012784|
|         226|   -3.962240|   -6.578359|    0.822492|    0.012784|
|         227|   -3.982286|   -6.585863|    0.822488|    0.012783|
|         228|   -4.000900|   -6.592731|    0.822487|    0.012783|
|         229|   -4.017000|   -6.599069|    0.822487|    0.012783|
|         230|   -4.029915|   -6.604978|    0.822489|    0.012782|
|         231|   -4.039521|   -6.610505|    0.822493|    0.012782|
|         232|   -4.046284|   -6.615734|    0.822498|    0.012782|
|         233|   -4.051184|   -6.620750|    0.822505|    0.012783|
|         234|   -4.055479|   -6.625589|    0.822515|    0.012783|
|         235|   -4.060395|   -6.630232|    0.822525|    0.012783|
|         236|   -4.066877|   -6.634707|    0.822538|    0.012783|
|         237|   -4.075445|   -6.638998|    0.822552|    0.012784|
|         238|   -4.086161|   -6.643092|    0.822567|    0.012784|
|         239|   -4.098647|   -6.646968|    0.822584|    0.012785|
|         240|   -4.112139|   -6.650612|    0.822603|    0.012786|
|         241|   -4.125600|   -6.654032|    0.822622|    0.012787|
|         242|   -4.137917|   -6.657239|    0.822643|    0.012787|
|         243|   -4.148178|   -6.660255|    0.822665|    0.012788|
|         244|   -4.155955|   -6.663051|    0.822688|    0.012789|
|         245|   -4.161439|   -6.665627|    0.822713|    0.012790|
|         246|   -4.165357|   -6.668043|    0.822738|    0.012791|
|         247|   -4.168713|   -6.670335|    0.822764|    0.012792|
|         248|   -4.172494|   -6.672517|    0.822791|    0.012793|
|         249|   -4.177447|   -6.674588|    0.822819|    0.012794|
|         250|   -4.183981|   -6.676568|    0.822848|    0.012795|
|         251|   -4.192159|   -6.678476|    0.822878|    0.012796|
|         252|   -4.201759|   -6.680325|    0.822908|    0.012797|
|         253|   -4.212368|   -6.682114|    0.822939|    0.012799|
|         254|   -4.223493|   -6.683850|    0.822971|    0.012800|
|         255|   -4.234674|   -6.685529|    0.823004|    0.012801|
|         256|   -4.245574|   -6.687145|    0.823038|    0.012802|
|         257|   -4.256034|   -6.688686|    0.823072|    0.012803|
|         258|   -4.266075|   -6.690146|    0.823107|    0.012804|
|         259|   -4.275862|   -6.691496|    0.823143|    0.012805|
|         260|   -4.285637|   -6.692732|    0.823179|    0.012806|
|         261|   -4.295651|   -6.693853|    0.823216|    0.012807|
|         262|   -4.306118|   -6.694864|    0.823254|    0.012808|
|         263|   -4.317182|   -6.695759|    0.823291|    0.012809|
|         264|   -4.328917|   -6.696546|    0.823329|    0.012811|
|         265|   -4.341334|   -6.697254|    0.823368|    0.012812|
|         266|   -4.354409|   -6.697924|    0.823406|    0.012813|
|         267|   -4.368094|   -6.698599|    0.823445|    0.012814|
|         268|   -4.382345|   -6.699327|    0.823483|    0.012814|
|         269|   -4.397123|   -6.700158|    0.823521|    0.012815|
|         270|   -4.412403|   -6.701142|    0.823559|    0.012816|
|         271|   -4.428164|   -6.702332|    0.823596|    0.012817|
|         272|   -4.444383|   -6.703773|    0.823632|    0.012818|
|         273|   -4.461026|   -6.705502|    0.823668|    0.012819|
|         274|   -4.478035|   -6.707539|    0.823702|    0.012819|
|         275|   -4.495325|   -6.709889|    0.823735|    0.012820|
|         276|   -4.512778|   -6.712536|    0.823766|    0.012821|
|         277|   -4.530244|   -6.715445|    0.823796|    0.012821|
|         278|   -4.547544|   -6.718557|    0.823824|    0.012822|
|         279|   -4.564476|   -6.721790|    0.823850|    0.012822|
|         280|   -4.580818|   -6.725058|    0.823874|    0.012823|
|         281|   -4.596342|   -6.728234|    0.823896|    0.012823|
|         282|   -4.610827|   -6.731186|    0.823916|    0.012823|
|         283|   -4.624066|   -6.733781|    0.823934|    0.012824|
|         284|   -4.635884|   -6.735885|    0.823949|    0.012824|
|         285|   -4.646152|   -6.737374|    0.823962|    0.012824|
|         286|   -4.654795|   -6.738146|    0.823973|    0.012824|
|         287|   -4.661797|   -6.738129|    0.823981|    0.012824|
|         288|   -4.667207|   -6.737297|    0.823987|    0.012825|
|         289|   -4.671128|   -6.735669|    0.823991|    0.012825|
|         290|   -4.673710|   -6.733300|    0.823992|    0.012824|
|         291|   -4.675133|   -6.730293|    0.823991|    0.012824|
|         292|   -4.675597|   -6.726787|    0.823988|    0.012824|
|         293|   -4.675304|   -6.722943|    0.823984|    0.012824|
|         294|   -4.674450|   -6.718935|    0.823977|    0.012824|
|         295|   -4.673216|   -6.714941|    0.823969|    0.012824|
|         296|   -4.671762|   -6.711135|    0.823959|    0.012823|
|         297|   -4.670226|   -6.707676|    0.823947|    0.012823|
|         298|   -4.668722|   -6.704708|    0.823934|    0.012822|
|         299|   -4.667345|   -6.702349|    0.823920|    0.012822|
|         300|   -4.666168|   -6.700693|    0.823904|    0.012821|
|         301|   -4.665248|   -6.699806|    0.823888|    0.012828|
+-----------------------------------------------------------------------+
|Fixed CL Mode                           |Value                         |
+-----------------------------------------------------------------------+
|Current CL                              |0.823888                      |
|Target CL                               |0.824                         |
|Previous AOA                            |2.77883                       |
|Changed AoA by                          |0.000479499                   |
+-----------------------------------------------------------------------+
+----------------------------------------------------------------+
|  Inner_Iter|    rms[Rho]|     rms[nu]|          CL|          CD|
+----------------------------------------------------------------+
|         302|   -3.511251|   -6.696024|    0.823870|    0.012827|
|         303|   -3.882801|   -6.698459|    0.823852|    0.012826|
|         304|   -4.092066|   -6.700545|    0.823834|    0.012825|
|         305|   -4.152129|   -6.703180|    0.823814|    0.012824|
|         306|   -4.196493|   -6.706425|    0.823795|    0.012823|
|         307|   -4.254569|   -6.710213|    0.823776|    0.012822|
|         308|   -4.323796|   -6.714428|    0.823756|    0.012821|
|         309|   -4.393692|   -6.718927|    0.823737|    0.012820|
|         310|   -4.454425|   -6.723538|    0.823718|    0.012818|
|         311|   -4.502732|   -6.728070|    0.823699|    0.012817|
|         312|   -4.539889|   -6.732320|    0.823681|    0.012816|
|         313|   -4.566982|   -6.736089|    0.823663|    0.012814|
|         314|   -4.584674|   -6.739192|    0.823646|    0.012813|
|         315|   -4.595278|   -6.741468|    0.823631|    0.012811|
|         316|   -4.602681|   -6.742796|    0.823616|    0.012810|
|         317|   -4.610369|   -6.743104|    0.823602|    0.012808|
|         318|   -4.620038|   -6.742374|    0.823589|    0.012807|
|         319|   -4.631658|   -6.740647|    0.823578|    0.012805|
|         320|   -4.644392|   -6.738018|    0.823568|    0.012804|
|         321|   -4.657548|   -6.734622|    0.823560|    0.012802|
|         322|   -4.671018|   -6.730623|    0.823552|    0.012801|
|         323|   -4.685086|   -6.726202|    0.823547|    0.012799|
|         324|   -4.699928|   -6.721542|    0.823543|    0.012798|
|         325|   -4.715267|   -6.716823|    0.823540|    0.012796|
|         326|   -4.730361|   -6.712211|    0.823539|    0.012795|
|         327|   -4.744286|   -6.707851|    0.823539|    0.012794|
|         328|   -4.756278|   -6.703872|    0.823541|    0.012792|
|         329|   -4.765966|   -6.700375|    0.823544|    0.012791|
|         330|   -4.773420|   -6.697439|    0.823548|    0.012790|
|         331|   -4.779058|   -6.695123|    0.823554|    0.012789|
|         332|   -4.783497|   -6.693460|    0.823561|    0.012788|
|         333|   -4.787399|   -6.692467|    0.823569|    0.012787|
|         334|   -4.791342|   -6.692140|    0.823578|    0.012787|
|         335|   -4.795719|   -6.692457|    0.823589|    0.012786|
|         336|   -4.800684|   -6.693382|    0.823600|    0.012785|
|         337|   -4.806146|   -6.694868|    0.823612|    0.012785|
|         338|   -4.811809|   -6.696852|    0.823624|    0.012784|
|         339|   -4.817235|   -6.699266|    0.823637|    0.012784|
|         340|   -4.821934|   -6.702037|    0.823651|    0.012783|
|         341|   -4.825455|   -6.705087|    0.823665|    0.012783|
|         342|   -4.827480|   -6.708340|    0.823679|    0.012782|
|         343|   -4.827889|   -6.711717|    0.823694|    0.012782|
|         344|   -4.826780|   -6.715148|    0.823709|    0.012782|
|         345|   -4.824436|   -6.718564|    0.823723|    0.012781|
|         346|   -4.821240|   -6.721910|    0.823738|    0.012781|
|         347|   -4.817592|   -6.725143|    0.823752|    0.012781|
|         348|   -4.813827|   -6.728226|    0.823767|    0.012780|
|         349|   -4.810177|   -6.731139|    0.823781|    0.012780|
|         350|   -4.806760|   -6.733868|    0.823795|    0.012780|
|         351|   -4.803602|   -6.736412|    0.823808|    0.012779|
|         352|   -4.800670|   -6.738777|    0.823821|    0.012779|
|         353|   -4.797908|   -6.740975|    0.823834|    0.012779|
|         354|   -4.795269|   -6.743019|    0.823846|    0.012778|
|         355|   -4.792734|   -6.744925|    0.823858|    0.012778|
|         356|   -4.790319|   -6.746706|    0.823870|    0.012777|
|         357|   -4.788071|   -6.748371|    0.823881|    0.012777|
|         358|   -4.786061|   -6.749926|    0.823892|    0.012776|
|         359|   -4.784365|   -6.751370|    0.823903|    0.012776|
|         360|   -4.783059|   -6.752701|    0.823913|    0.012775|
|         361|   -4.782205|   -6.753908|    0.823923|    0.012774|
|         362|   -4.781849|   -6.754980|    0.823933|    0.012774|
|         363|   -4.782025|   -6.755905|    0.823942|    0.012773|
|         364|   -4.782749|   -6.756670|    0.823952|    0.012772|
|         365|   -4.784031|   -6.757266|    0.823961|    0.012772|
|         366|   -4.785874|   -6.757686|    0.823970|    0.012771|
|         367|   -4.788276|   -6.757932|    0.823979|    0.012770|
|         368|   -4.791237|   -6.758012|    0.823988|    0.012770|
|         369|   -4.794751|   -6.757941|    0.823996|    0.012769|
|         370|   -4.798813|   -6.757740|    0.824005|    0.012769|
|         371|   -4.803414|   -6.757443|    0.824014|    0.012768|
|         372|   -4.808540|   -6.757086|    0.824023|    0.012767|
|         373|   -4.814172|   -6.756712|    0.824032|    0.012767|
|         374|   -4.820284|   -6.756364|    0.824040|    0.012766|
|         375|   -4.826841|   -6.756088|    0.824049|    0.012766|
|         376|   -4.833801|   -6.755925|    0.824058|    0.012766|
|         377|   -4.841113|   -6.755914|    0.824067|    0.012765|
|         378|   -4.848718|   -6.756087|    0.824075|    0.012765|
|         379|   -4.856548|   -6.756466|    0.824084|    0.012765|
|         380|   -4.864528|   -6.757069|    0.824093|    0.012764|
|         381|   -4.872574|   -6.757905|    0.824101|    0.012764|
|         382|   -4.880597|   -6.758971|    0.824110|    0.012764|
|         383|   -4.888501|   -6.760255|    0.824118|    0.012764|
|         384|   -4.896187|   -6.761735|    0.824126|    0.012764|
|         385|   -4.903557|   -6.763379|    0.824133|    0.012764|
|         386|   -4.910512|   -6.765150|    0.824141|    0.012764|
|         387|   -4.916960|   -6.767004|    0.824148|    0.012765|
|         388|   -4.922815|   -6.768892|    0.824155|    0.012765|
|         389|   -4.928006|   -6.770766|    0.824162|    0.012765|
|         390|   -4.932476|   -6.772579|    0.824168|    0.012765|
|         391|   -4.936186|   -6.774284|    0.824174|    0.012766|
|         392|   -4.939117|   -6.775844|    0.824179|    0.012766|
|         393|   -4.941272|   -6.777229|    0.824184|    0.012767|
|         394|   -4.942672|   -6.778418|    0.824188|    0.012767|
|         395|   -4.943361|   -6.779401|    0.824193|    0.012768|
|         396|   -4.943395|   -6.780178|    0.824196|    0.012768|
|         397|   -4.942847|   -6.780762|    0.824200|    0.012769|
|         398|   -4.941799|   -6.781173|    0.824202|    0.012769|
|         399|   -4.940340|   -6.781439|    0.824205|    0.012770|
|         400|   -4.938563|   -6.781594|    0.824207|    0.012770|
|         401|   -4.936559|   -6.781676|    0.824209|    0.012756|
+-----------------------------------------------------------------------+
|Fixed CL Mode                           |Value                         |
+-----------------------------------------------------------------------+
|Current CL                              |0.824209                      |
|Target CL                               |0.824                         |
|Previous AOA                            |2.77931                       |
|Changed AoA by                          |-0.00103496                   |
+-----------------------------------------------------------------------+
+----------------------------------------------------------------+
|  Inner_Iter|    rms[Rho]|     rms[nu]|          CL|          CD|
+----------------------------------------------------------------+
|         402|   -3.178325|   -6.761397|    0.824210|    0.012756|
|         403|   -3.563167|   -6.771851|    0.824211|    0.012757|
|         404|   -3.810321|   -6.774962|    0.824212|    0.012757|
|         405|   -3.892302|   -6.776676|    0.824213|    0.012758|
|         406|   -3.947568|   -6.777964|    0.824213|    0.012758|
|         407|   -4.018112|   -6.779077|    0.824213|    0.012758|
|         408|   -4.104436|   -6.780107|    0.824213|    0.012759|
|         409|   -4.192899|   -6.781105|    0.824213|    0.012759|
|         410|   -4.265971|   -6.782101|    0.824213|    0.012759|
|         411|   -4.315722|   -6.783101|    0.824212|    0.012760|
|         412|   -4.345582|   -6.784112|    0.824212|    0.012760|
|         413|   -4.361119|   -6.785153|    0.824212|    0.012760|
|         414|   -4.367071|   -6.786252|    0.824212|    0.012761|
|         415|   -4.369076|   -6.787421|    0.824212|    0.012761|
|         416|   -4.372861|   -6.788659|    0.824212|    0.012761|
|         417|   -4.382024|   -6.789961|    0.824213|    0.012761|
|         418|   -4.397134|   -6.791318|    0.824213|    0.012762|
|         419|   -4.416262|   -6.792718|    0.824214|    0.012762|
|         420|   -4.436347|   -6.794169|    0.824215|    0.012762|
|         421|   -4.454878|   -6.795676|    0.824217|    0.012762|
|         422|   -4.471055|   -6.797247|    0.824219|    0.012762|
|         423|   -4.485689|   -6.798890|    0.824220|    0.012762|
|         424|   -4.500128|   -6.800613|    0.824223|    0.012763|
|         425|   -4.515273|   -6.802430|    0.824225|    0.012763|
|         426|   -4.531231|   -6.804357|    0.824228|    0.012763|
|         427|   -4.547516|   -6.806460|    0.824231|    0.012763|
|         428|   -4.563387|   -6.808717|    0.824234|    0.012763|
|         429|   -4.578113|   -6.811139|    0.824238|    0.012763|
|         430|   -4.591114|   -6.813745|    0.824242|    0.012764|
|         431|   -4.602063|   -6.816548|    0.824246|    0.012764|
|         432|   -4.610997|   -6.819560|    0.824250|    0.012764|
|         433|   -4.618359|   -6.822784|    0.824254|    0.012764|
|         434|   -4.624916|   -6.826223|    0.824259|    0.012764|
|         435|   -4.631559|   -6.829870|    0.824263|    0.012764|
|         436|   -4.639085|   -6.833715|    0.824268|    0.012765|
|         437|   -4.648037|   -6.837746|    0.824272|    0.012765|
|         438|   -4.658627|   -6.841944|    0.824276|    0.012765|
|         439|   -4.670722|   -6.846288|    0.824281|    0.012765|
|         440|   -4.683874|   -6.850753|    0.824285|    0.012765|
|         441|   -4.697392|   -6.855314|    0.824289|    0.012765|
|         442|   -4.710483|   -6.859946|    0.824293|    0.012766|
|         443|   -4.722440|   -6.864629|    0.824297|    0.012766|
|         444|   -4.732851|   -6.869341|    0.824301|    0.012766|
|         445|   -4.741721|   -6.874065|    0.824304|    0.012766|
|         446|   -4.749463|   -6.878787|    0.824307|    0.012766|
|         447|   -4.756749|   -6.883494|    0.824310|    0.012766|
|         448|   -4.764313|   -6.888178|    0.824312|    0.012766|
|         449|   -4.772745|   -6.892835|    0.824314|    0.012766|
|         450|   -4.782402|   -6.897464|    0.824316|    0.012766|
|         451|   -4.793365|   -6.902069|    0.824317|    0.012766|
|         452|   -4.805463|   -6.906659|    0.824318|    0.012765|
|         453|   -4.818338|   -6.911243|    0.824319|    0.012765|
|         454|   -4.831538|   -6.915832|    0.824319|    0.012765|
|         455|   -4.844613|   -6.920443|    0.824318|    0.012765|
|         456|   -4.857203|   -6.925092|    0.824317|    0.012764|
|         457|   -4.869103|   -6.929797|    0.824316|    0.012764|
|         458|   -4.880271|   -6.934577|    0.824315|    0.012763|
|         459|   -4.890805|   -6.939450|    0.824313|    0.012763|
|         460|   -4.900886|   -6.944435|    0.824310|    0.012762|
|         461|   -4.910716|   -6.949547|    0.824308|    0.012762|
|         462|   -4.920469|   -6.954799|    0.824305|    0.012761|
|         463|   -4.930258|   -6.960202|    0.824301|    0.012760|
|         464|   -4.940132|   -6.965762|    0.824298|    0.012760|
|         465|   -4.950082|   -6.971481|    0.824294|    0.012759|
|         466|   -4.960066|   -6.977352|    0.824291|    0.012758|
|         467|   -4.970026|   -6.983364|    0.824287|    0.012757|
|         468|   -4.979906|   -6.989497|    0.824283|    0.012757|
|         469|   -4.989664|   -6.995723|    0.824279|    0.012756|
|         470|   -4.999274|   -7.002010|    0.824276|    0.012755|
|         471|   -5.008720|   -7.008322|    0.824272|    0.012754|
|         472|   -5.017997|   -7.014614|    0.824269|    0.012753|
|         473|   -5.027098|   -7.020851|    0.824266|    0.012752|
|         474|   -5.036015|   -7.026998|    0.824264|    0.012752|
|         475|   -5.044736|   -7.033015|    0.824261|    0.012751|
|         476|   -5.053249|   -7.038856|    0.824259|    0.012750|
|         477|   -5.061539|   -7.044482|    0.824258|    0.012749|
|         478|   -5.069599|   -7.049858|    0.824257|    0.012748|
|         479|   -5.077428|   -7.054955|    0.824257|    0.012747|
|         480|   -5.085035|   -7.059748|    0.824257|    0.012747|
|         481|   -5.092437|   -7.064232|    0.824258|    0.012746|
|         482|   -5.099661|   -7.068410|    0.824259|    0.012745|
|         483|   -5.106743|   -7.072297|    0.824261|    0.012744|
|         484|   -5.113721|   -7.075937|    0.824264|    0.012744|
|         485|   -5.120634|   -7.079388|    0.824267|    0.012743|
|         486|   -5.127525|   -7.082712|    0.824271|    0.012742|
|         487|   -5.134434|   -7.085969|    0.824275|    0.012742|
|         488|   -5.141403|   -7.089222|    0.824280|    0.012741|
|         489|   -5.148469|   -7.092526|    0.824285|    0.012740|
|         490|   -5.155668|   -7.095943|    0.824291|    0.012740|
|         491|   -5.163030|   -7.099525|    0.824297|    0.012739|
|         492|   -5.170579|   -7.103324|    0.824304|    0.012739|
|         493|   -5.178336|   -7.107383|    0.824311|    0.012738|
|         494|   -5.186311|   -7.111740|    0.824319|    0.012738|
|         495|   -5.194509|   -7.116425|    0.824326|    0.012737|
|         496|   -5.202927|   -7.121462|    0.824334|    0.012737|
|         497|   -5.211551|   -7.126867|    0.824342|    0.012737|
|         498|   -5.220364|   -7.132645|    0.824351|    0.012736|
|         499|   -5.229334|   -7.138793|    0.824359|    0.012736|
|         500|   -5.238420|   -7.145304|    0.824368|    0.012736|
|         501|   -5.247574|   -7.152159|    0.824377|    0.012709|
+-----------------------------------------------------------------------+
|Fixed CL Mode                           |Value                         |
+-----------------------------------------------------------------------+
|Current CL                              |0.824377                      |
|Target CL                               |0.824                         |
|Previous AOA                            |2.77827                       |
|Changed AoA by                          |-0.00184049                   |
+-----------------------------------------------------------------------+
+----------------------------------------------------------------+
|  Inner_Iter|    rms[Rho]|     rms[nu]|          CL|          CD|
+----------------------------------------------------------------+
|         502|   -2.928377|   -6.933883|    0.824386|    0.012708|
|         503|   -3.312285|   -7.024388|    0.824395|    0.012708|
|         504|   -3.555414|   -7.062480|    0.824404|    0.012708|
|         505|   -3.634541|   -7.088072|    0.824413|    0.012708|
|         506|   -3.688928|   -7.109315|    0.824422|    0.012707|
|         507|   -3.759390|   -7.128153|    0.824430|    0.012707|
|         508|   -3.846555|   -7.145061|    0.824439|    0.012707|
|         509|   -3.937885|   -7.160262|    0.824447|    0.012707|
|         510|   -4.016867|   -7.173824|    0.824456|    0.012707|
|         511|   -4.074844|   -7.185609|    0.824464|    0.012707|
|         512|   -4.113161|   -7.195526|    0.824472|    0.012707|
|         513|   -4.135498|   -7.203924|    0.824480|    0.012707|
|         514|   -4.145655|   -7.211427|    0.824488|    0.012707|
|         515|   -4.149610|   -7.218540|    0.824495|    0.012707|
|         516|   -4.154198|   -7.225437|    0.824502|    0.012707|
|         517|   -4.164035|   -7.232055|    0.824509|    0.012707|
|         518|   -4.180248|   -7.238349|    0.824516|    0.012707|
|         519|   -4.201046|   -7.244413|    0.824522|    0.012708|
|         520|   -4.223235|   -7.250437|    0.824528|    0.012708|
|         521|   -4.244089|   -7.256594|    0.824534|    0.012708|
|         522|   -4.262698|   -7.262936|    0.824539|    0.012708|
|         523|   -4.279912|   -7.269369|    0.824544|    0.012709|
|         524|   -4.297170|   -7.275693|    0.824549|    0.012709|
|         525|   -4.315351|   -7.281695|    0.824553|    0.012709|
|         526|   -4.334380|   -7.287197|    0.824557|    0.012710|
|         527|   -4.353463|   -7.292069|    0.824561|    0.012710|
|         528|   -4.371531|   -7.296246|    0.824564|    0.012710|
|         529|   -4.387607|   -7.299695|    0.824567|    0.012711|
|         530|   -4.401012|   -7.302413|    0.824570|    0.012711|
|         531|   -4.411497|   -7.304434|    0.824572|    0.012712|
|         532|   -4.419336|   -7.305819|    0.824574|    0.012712|
|         533|   -4.425305|   -7.306617|    0.824575|    0.012713|
|         534|   -4.430510|   -7.306798|    0.824576|    0.012713|
|         535|   -4.436106|   -7.306560|    0.824577|    0.012714|
|         536|   -4.443038|   -7.305912|    0.824577|    0.012714|
|         537|   -4.451877|   -7.304853|    0.824577|    0.012715|
|         538|   -4.462765|   -7.303380|    0.824576|    0.012715|
|         539|   -4.475419|   -7.301500|    0.824575|    0.012716|
|         540|   -4.489171|   -7.299219|    0.824574|    0.012717|
|         541|   -4.503070|   -7.296542|    0.824572|    0.012717|
|         542|   -4.516059|   -7.293539|    0.824569|    0.012718|
|         543|   -4.527240|   -7.290285|    0.824567|    0.012718|
|         544|   -4.536144|   -7.286843|    0.824563|    0.012719|
|         545|   -4.542889|   -7.283309|    0.824560|    0.012719|
|         546|   -4.548120|   -7.279739|    0.824556|    0.012720|
|         547|   -4.552785|   -7.276151|    0.824551|    0.012721|
|         548|   -4.557844|   -7.272602|    0.824546|    0.012721|
|         549|   -4.564046|   -7.269142|    0.824541|    0.012722|
|         550|   -4.571817|   -7.265837|    0.824535|    0.012722|
|         551|   -4.581242|   -7.262634|    0.824528|    0.012723|
|         552|   -4.592111|   -7.259564|    0.824521|    0.012723|
|         553|   -4.604011|   -7.256736|    0.824513|    0.012724|
|         554|   -4.616436|   -7.254019|    0.824505|    0.012724|
|         555|   -4.628896|   -7.251444|    0.824496|    0.012724|
|         556|   -4.641022|   -7.249013|    0.824486|    0.012725|
|         557|   -4.652626|   -7.246690|    0.824476|    0.012725|
|         558|   -4.663711|   -7.244512|    0.824466|    0.012725|
|         559|   -4.674437|   -7.242502|    0.824455|    0.012726|
|         560|   -4.685056|   -7.240704|    0.824443|    0.012726|
|         561|   -4.695836|   -7.239186|    0.824431|    0.012726|
|         562|   -4.707011|   -7.238009|    0.824418|    0.012726|
|         563|   -4.718745|   -7.237247|    0.824405|    0.012726|
|         564|   -4.731127|   -7.236965|    0.824392|    0.012727|
|         565|   -4.744184|   -7.237232|    0.824378|    0.012727|
|         566|   -4.757896|   -7.238108|    0.824364|    0.012727|
|         567|   -4.772227|   -7.239656|    0.824350|    0.012727|
|         568|   -4.787135|   -7.241924|    0.824335|    0.012727|
|         569|   -4.802592|   -7.244945|    0.824321|    0.012727|
|         570|   -4.818579|   -7.248727|    0.824307|    0.012726|
|         571|   -4.835086|   -7.253251|    0.824293|    0.012726|
|         572|   -4.852103|   -7.258459|    0.824279|    0.012726|
|         573|   -4.869607|   -7.264265|    0.824266|    0.012726|
|         574|   -4.887553|   -7.270540|    0.824253|    0.012726|
|         575|   -4.905868|   -7.277106|    0.824241|    0.012726|
|         576|   -4.924445|   -7.283732|    0.824229|    0.012726|
|         577|   -4.943145|   -7.290137|    0.824218|    0.012725|
|         578|   -4.961796|   -7.295991|    0.824208|    0.012725|
|         579|   -4.980201|   -7.300947|    0.824199|    0.012725|
|         580|   -4.998141|   -7.304637|    0.824191|    0.012725|
|         581|   -5.015387|   -7.306725|    0.824183|    0.012725|
|         582|   -5.031709|   -7.306951|    0.824177|    0.012724|
|         583|   -5.046890|   -7.305161|    0.824172|    0.012724|
|         584|   -5.060737|   -7.301332|    0.824168|    0.012724|
|         585|   -5.073100|   -7.295551|    0.824164|    0.012724|
|         586|   -5.083882|   -7.288050|    0.824162|    0.012723|
|         587|   -5.093046|   -7.279156|    0.824161|    0.012723|
|         588|   -5.100623|   -7.269251|    0.824161|    0.012723|
|         589|   -5.106705|   -7.258736|    0.824162|    0.012723|
|         590|   -5.111434|   -7.248001|    0.824164|    0.012722|
|         591|   -5.114994|   -7.237403|    0.824168|    0.012722|
|         592|   -5.117590|   -7.227256|    0.824171|    0.012722|
|         593|   -5.119435|   -7.217824|    0.824176|    0.012722|
|         594|   -5.120737|   -7.209321|    0.824182|    0.012721|
|         595|   -5.121688|   -7.201918|    0.824188|    0.012721|
|         596|   -5.122456|   -7.195741|    0.824195|    0.012721|
|         597|   -5.123187|   -7.190878|    0.824203|    0.012721|
|         598|   -5.123997|   -7.187385|    0.824211|    0.012720|
|         599|   -5.124979|   -7.185289|    0.824220|    0.012720|
|         600|   -5.126201|   -7.184586|    0.824230|    0.012720|
|         601|   -5.127712|   -7.185248|    0.824240|    0.012703|
+-----------------------------------------------------------------------+
|Fixed CL Mode                           |Value                         |
+-----------------------------------------------------------------------+
|Current CL                              |0.82424                       |
|Target CL                               |0.824                         |
|Previous AOA                            |2.77643                       |
|Changed AoA by                          |-0.00114841                   |
+-----------------------------------------------------------------------+
+----------------------------------------------------------------+
|  Inner_Iter|    rms[Rho]|     rms[nu]|          CL|          CD|
+----------------------------------------------------------------+
|         602|   -3.133177|   -7.056584|    0.824250|    0.012702|
|         603|   -3.516094|   -7.114639|    0.824260|    0.012702|
|         604|   -3.755817|   -7.137566|    0.824271|    0.012702|
|         605|   -3.832772|   -7.153392|    0.824282|    0.012701|
|         606|   -3.886279|   -7.167098|    0.824293|    0.012701|
|         607|   -3.955990|   -7.179744|    0.824304|    0.012701|
|         608|   -4.042326|   -7.191523|    0.824315|    0.012700|
|         609|   -4.133230|   -7.202433|    0.824326|    0.012700|
|         610|   -4.213106|   -7.212337|    0.824336|    0.012700|
|         611|   -4.273669|   -7.220951|    0.824347|    0.012700|
|         612|   -4.315622|   -7.227985|    0.824358|    0.012699|
|         613|   -4.341598|   -7.233342|    0.824368|    0.012699|
|         614|   -4.354533|   -7.237076|    0.824378|    0.012699|
|         615|   -4.360107|   -7.239232|    0.824387|    0.012699|
|         616|   -4.365405|   -7.239782|    0.824397|    0.012698|
|         617|   -4.375468|   -7.238690|    0.824405|    0.012698|
|         618|   -4.391754|   -7.236025|    0.824414|    0.012698|
|         619|   -4.412689|   -7.231985|    0.824422|    0.012698|
|         620|   -4.435229|   -7.226856|    0.824429|    0.012697|
|         621|   -4.456754|   -7.220934|    0.824436|    0.012697|
|         622|   -4.476406|   -7.214476|    0.824442|    0.012697|
|         623|   -4.495027|   -7.207677|    0.824448|    0.012697|
|         624|   -4.513982|   -7.200705|    0.824453|    0.012697|
|         625|   -4.534012|   -7.193714|    0.824458|    0.012696|
|         626|   -4.554837|   -7.186843|    0.824462|    0.012696|
|         627|   -4.575412|   -7.180227|    0.824465|    0.012696|
|         628|   -4.594428|   -7.173986|    0.824468|    0.012696|
|         629|   -4.610761|   -7.168220|    0.824470|    0.012696|
|         630|   -4.623730|   -7.163011|    0.824472|    0.012696|
|         631|   -4.633237|   -7.158408|    0.824473|    0.012696|
|         632|   -4.639803|   -7.154440|    0.824474|    0.012696|
|         633|   -4.644464|   -7.151110|    0.824474|    0.012695|
|         634|   -4.648517|   -7.148401|    0.824473|    0.012695|
|         635|   -4.653207|   -7.146274|    0.824473|    0.012695|
|         636|   -4.659470|   -7.144668|    0.824471|    0.012695|
|         637|   -4.667802|   -7.143529|    0.824469|    0.012695|
|         638|   -4.678224|   -7.142791|    0.824467|    0.012695|
|         639|   -4.690308|   -7.142376|    0.824464|    0.012695|
|         640|   -4.703241|   -7.142208|    0.824461|    0.012695|
|         641|   -4.715945|   -7.142217|    0.824458|    0.012695|
|         642|   -4.727288|   -7.142340|    0.824454|    0.012695|
|         643|   -4.736378|   -7.142528|    0.824450|    0.012695|
|         644|   -4.742836|   -7.142740|    0.824446|    0.012696|
|         645|   -4.746919|   -7.142945|    0.824442|    0.012696|
|         646|   -4.749411|   -7.143123|    0.824437|    0.012696|
|         647|   -4.751345|   -7.143260|    0.824432|    0.012696|
|         648|   -4.753706|   -7.143350|    0.824426|    0.012696|
|         649|   -4.757221|   -7.143390|    0.824421|    0.012697|
|         650|   -4.762266|   -7.143392|    0.824415|    0.012697|
|         651|   -4.768878|   -7.143366|    0.824409|    0.012697|
|         652|   -4.776820|   -7.143305|    0.824403|    0.012698|
|         653|   -4.785682|   -7.143227|    0.824397|    0.012698|
|         654|   -4.794992|   -7.143123|    0.824390|    0.012699|
|         655|   -4.804324|   -7.142996|    0.824383|    0.012699|
|         656|   -4.813384|   -7.142843|    0.824376|    0.012699|
|         657|   -4.822048|   -7.142659|    0.824369|    0.012700|
|         658|   -4.830362|   -7.142441|    0.824361|    0.012700|
|         659|   -4.838499|   -7.142185|    0.824354|    0.012701|
|         660|   -4.846695|   -7.141890|    0.824345|    0.012701|
|         661|   -4.855191|   -7.141557|    0.824337|    0.012702|
|         662|   -4.864184|   -7.141191|    0.824329|    0.012702|
|         663|   -4.873809|   -7.140802|    0.824320|    0.012703|
|         664|   -4.884137|   -7.140404|    0.824311|    0.012703|
|         665|   -4.895188|   -7.140020|    0.824302|    0.012704|
|         666|   -4.906949|   -7.139679|    0.824293|    0.012705|
|         667|   -4.919392|   -7.139418|    0.824284|    0.012705|
|         668|   -4.932496|   -7.139279|    0.824274|    0.012706|
|         669|   -4.946246|   -7.139309|    0.824265|    0.012706|
|         670|   -4.960643|   -7.139556|    0.824256|    0.012707|
|         671|   -4.975692|   -7.140070|    0.824246|    0.012707|
|         672|   -4.991403|   -7.140892|    0.824237|    0.012708|
|         673|   -5.007775|   -7.142058|    0.824228|    0.012708|
|         674|   -5.024790|   -7.143593|    0.824219|    0.012708|
|         675|   -5.042412|   -7.145507|    0.824211|    0.012709|
|         676|   -5.060574|   -7.147794|    0.824203|    0.012709|
|         677|   -5.079184|   -7.150440|    0.824195|    0.012710|
|         678|   -5.098118|   -7.153399|    0.824187|    0.012710|
|         679|   -5.117222|   -7.156607|    0.824180|    0.012710|
|         680|   -5.136314|   -7.159985|    0.824173|    0.012711|
|         681|   -5.155185|   -7.163435|    0.824167|    0.012711|
|         682|   -5.173601|   -7.166846|    0.824162|    0.012711|
|         683|   -5.191310|   -7.170097|    0.824157|    0.012712|
|         684|   -5.208051|   -7.173064|    0.824152|    0.012712|
|         685|   -5.223570|   -7.175628|    0.824148|    0.012712|
|         686|   -5.237630|   -7.177688|    0.824145|    0.012712|
|         687|   -5.250037|   -7.179148|    0.824143|    0.012712|
|         688|   -5.260652|   -7.179945|    0.824141|    0.012713|
|         689|   -5.269405|   -7.180050|    0.824139|    0.012713|
|         690|   -5.276302|   -7.179472|    0.824138|    0.012713|
|         691|   -5.281423|   -7.178254|    0.824138|    0.012713|
|         692|   -5.284912|   -7.176470|    0.824139|    0.012713|
|         693|   -5.286958|   -7.174225|    0.824140|    0.012713|
|         694|   -5.287785|   -7.171640|    0.824141|    0.012713|
|         695|   -5.287625|   -7.168850|    0.824143|    0.012713|
|         696|   -5.286708|   -7.165991|    0.824146|    0.012713|
|         697|   -5.285253|   -7.163198|    0.824149|    0.012713|
|         698|   -5.283455|   -7.160595|    0.824152|    0.012713|
|         699|   -5.281485|   -7.158292|    0.824156|    0.012713|
|         700|   -5.279488|   -7.156377|    0.824160|    0.012712|
|         701|   -5.277585|   -7.154923|    0.824165|    0.012701|
+-----------------------------------------------------------------------+
|Fixed CL Mode                           |Value                         |
+-----------------------------------------------------------------------+
|Current CL                              |0.824165                      |
|Target CL                               |0.824                         |
|Previous AOA                            |2.77528                       |
|Changed AoA by                          |-0.000800774                  |
+-----------------------------------------------------------------------+
+----------------------------------------------------------------+
|  Inner_Iter|    rms[Rho]|     rms[nu]|          CL|          CD|
+----------------------------------------------------------------+
|         702|   -3.289830|   -7.089585|    0.824170|    0.012701|
|         703|   -3.673019|   -7.119044|    0.824175|    0.012700|
|         704|   -3.912750|   -7.128674|    0.824180|    0.012700|
|         705|   -3.989006|   -7.134608|    0.824185|    0.012700|
|         706|   -4.041847|   -7.139490|    0.824191|    0.012700|
|         707|   -4.111014|   -7.143914|    0.824197|    0.012700|
|         708|   -4.196885|   -7.148042|    0.824203|    0.012700|
|         709|   -4.287490|   -7.151938|    0.824208|    0.012699|
|         710|   -4.367417|   -7.155600|    0.824214|    0.012699|
|         711|   -4.428446|   -7.158955|    0.824220|    0.012699|
|         712|   -4.471119|   -7.161923|    0.824226|    0.012699|
|         713|   -4.497841|   -7.164477|    0.824231|    0.012699|
|         714|   -4.511363|   -7.166622|    0.824237|    0.012699|
|         715|   -4.517286|   -7.168351|    0.824242|    0.012698|
|         716|   -4.522731|   -7.169616|    0.824247|    0.012698|
|         717|   -4.532815|   -7.170358|    0.824252|    0.012698|
|         718|   -4.549057|   -7.170551|    0.824257|    0.012698|
|         719|   -4.569930|   -7.170212|    0.824261|    0.012698|
|         720|   -4.592422|   -7.169398|    0.824265|    0.012697|
|         721|   -4.613940|   -7.168182|    0.824269|    0.012697|
|         722|   -4.633644|   -7.166634|    0.824272|    0.012697|
|         723|   -4.652382|   -7.164814|    0.824275|    0.012697|
|         724|   -4.671508|   -7.162788|    0.824278|    0.012697|
|         725|   -4.691741|   -7.160627|    0.824280|    0.012697|
|         726|   -4.712774|   -7.158405|    0.824282|    0.012696|
|         727|   -4.733528|   -7.156200|    0.824284|    0.012696|
|         728|   -4.752669|   -7.154091|    0.824285|    0.012696|
|         729|   -4.769060|   -7.152149|    0.824286|    0.012696|
|         730|   -4.782032|   -7.150436|    0.824286|    0.012696|
|         731|   -4.791522|   -7.149003|    0.824287|    0.012696|
|         732|   -4.798096|   -7.147890|    0.824286|    0.012695|
|         733|   -4.802835|   -7.147117|    0.824286|    0.012695|
|         734|   -4.807071|   -7.146692|    0.824285|    0.012695|
|         735|   -4.812072|   -7.146606|    0.824284|    0.012695|
|         736|   -4.818788|   -7.146837|    0.824283|    0.012695|
|         737|   -4.827720|   -7.147355|    0.824281|    0.012695|
|         738|   -4.838890|   -7.148120|    0.824279|    0.012694|
|         739|   -4.851861|   -7.149089|    0.824277|    0.012694|
|         740|   -4.865797|   -7.150214|    0.824275|    0.012694|
|         741|   -4.879571|   -7.151449|    0.824273|    0.012694|
|         742|   -4.891983|   -7.152749|    0.824270|    0.012694|
|         743|   -4.902059|   -7.154070|    0.824267|    0.012694|
|         744|   -4.909356|   -7.155378|    0.824264|    0.012694|
|         745|   -4.914102|   -7.156643|    0.824261|    0.012694|
|         746|   -4.917097|   -7.157840|    0.824258|    0.012694|
|         747|   -4.919422|   -7.158950|    0.824254|    0.012694|
|         748|   -4.922120|   -7.159958|    0.824251|    0.012694|
|         749|   -4.925966|   -7.160855|    0.824247|    0.012694|
|         750|   -4.931368|   -7.161635|    0.824243|    0.012694|
|         751|   -4.938374|   -7.162296|    0.824239|    0.012694|
|         752|   -4.946739|   -7.162837|    0.824235|    0.012694|
|         753|   -4.956029|   -7.163269|    0.824231|    0.012694|
|         754|   -4.965742|   -7.163601|    0.824226|    0.012694|
|         755|   -4.975418|   -7.163827|    0.824222|    0.012694|
|         756|   -4.984733|   -7.163953|    0.824217|    0.012694|
|         757|   -4.993548|   -7.163982|    0.824212|    0.012694|
|         758|   -5.001904|   -7.163923|    0.824207|    0.012695|
|         759|   -5.009981|   -7.163783|    0.824202|    0.012695|
|         760|   -5.018030|   -7.163574|    0.824196|    0.012695|
|         761|   -5.026303|   -7.163311|    0.824190|    0.012695|
|         762|   -5.035009|   -7.163010|    0.824185|    0.012696|
|         763|   -5.044289|   -7.162694|    0.824179|    0.012696|
|         764|   -5.054215|   -7.162388|    0.824173|    0.012696|
|         765|   -5.064802|   -7.162124|    0.824166|    0.012696|
|         766|   -5.076033|   -7.161933|    0.824160|    0.012697|
|         767|   -5.087876|   -7.161853|    0.824154|    0.012697|
|         768|   -5.100304|   -7.161923|    0.824147|    0.012697|
|         769|   -5.113300|   -7.162182|    0.824141|    0.012698|
|         770|   -5.126864|   -7.162667|    0.824134|    0.012698|
|         771|   -5.141004|   -7.163414|    0.824128|    0.012698|
|         772|   -5.155731|   -7.164453|    0.824121|    0.012699|
|         773|   -5.171049|   -7.165806|    0.824115|    0.012699|
|         774|   -5.186949|   -7.167486|    0.824109|    0.012699|
|         775|   -5.203400|   -7.169509|    0.824103|    0.012700|
|         776|   -5.220351|   -7.171857|    0.824097|    0.012700|
|         777|   -5.237724|   -7.174512|    0.824092|    0.012700|
|         778|   -5.255419|   -7.177442|    0.824087|    0.012701|
|         779|   -5.273310|   -7.180602|    0.824082|    0.012701|
|         780|   -5.291250|   -7.183934|    0.824077|    0.012701|
|         781|   -5.309072|   -7.187374|    0.824073|    0.012702|
|         782|   -5.326590|   -7.190845|    0.824069|    0.012702|
|         783|   -5.343604|   -7.194269|    0.824066|    0.012702|
|         784|   -5.359907|   -7.197564|    0.824063|    0.012703|
|         785|   -5.375292|   -7.200652|    0.824061|    0.012703|
|         786|   -5.389564|   -7.203461|    0.824059|    0.012703|
|         787|   -5.402549|   -7.205929|    0.824057|    0.012704|
|         788|   -5.414112|   -7.208009|    0.824056|    0.012704|
|         789|   -5.424163|   -7.209674|    0.824055|    0.012704|
|         790|   -5.432666|   -7.210919|    0.824054|    0.012705|
|         791|   -5.439638|   -7.211750|    0.824055|    0.012705|
|         792|   -5.445151|   -7.212196|    0.824055|    0.012705|
|         793|   -5.449318|   -7.212307|    0.824056|    0.012705|
|         794|   -5.452285|   -7.212143|    0.824057|    0.012706|
|         795|   -5.454217|   -7.211779|    0.824059|    0.012706|
|         796|   -5.455288|   -7.211295|    0.824060|    0.012706|
|         797|   -5.455670|   -7.210771|    0.824063|    0.012706|
|         798|   -5.455525|   -7.210286|    0.824065|    0.012706|
|         799|   -5.455003|   -7.209911|    0.824068|    0.012707|
|         800|   -5.454235|   -7.209710|    0.824071|    0.012707|
|         801|   -5.453336|   -7.209733|    0.824074|    0.012702|
+-----------------------------------------------------------------------+
|Fixed CL Mode                           |Value                         |
+-----------------------------------------------------------------------+
|Current CL                              |0.824074                      |
|Target CL                               |0.824                         |
|Previous AOA                            |2.77448                       |
|Changed AoA by                          |-0.000354479                  |
+-----------------------------------------------------------------------+
+----------------------------------------------------------------+
|  Inner_Iter|    rms[Rho]|     rms[nu]|          CL|          CD|
+----------------------------------------------------------------+
|         802|   -3.643785|   -7.191666|    0.824078|    0.012702|
|         803|   -4.026817|   -7.201153|    0.824081|    0.012702|
|         804|   -4.265226|   -7.204706|    0.824085|    0.012702|
|         805|   -4.339961|   -7.207346|    0.824089|    0.012702|
|         806|   -4.391692|   -7.209821|    0.824092|    0.012703|
|         807|   -4.459763|   -7.212282|    0.824096|    0.012703|
|         808|   -4.544357|   -7.214753|    0.824100|    0.012703|
|         809|   -4.633676|   -7.217226|    0.824104|    0.012703|
|         810|   -4.712872|   -7.219674|    0.824108|    0.012703|
|         811|   -4.774158|   -7.222048|    0.824112|    0.012703|
|         812|   -4.817958|   -7.224296|    0.824116|    0.012703|
|         813|   -4.846234|   -7.226381|    0.824120|    0.012703|
|         814|   -4.861235|   -7.228275|    0.824123|    0.012703|
|         815|   -4.868189|   -7.229953|    0.824127|    0.012703|
|         816|   -4.874113|   -7.231383|    0.824130|    0.012703|
|         817|   -4.884210|   -7.232540|    0.824133|    0.012703|
|         818|   -4.900153|   -7.233412|    0.824136|    0.012703|
|         819|   -4.920583|   -7.234008|    0.824139|    0.012703|
|         820|   -4.942675|   -7.234355|    0.824141|    0.012703|
|         821|   -4.964012|   -7.234487|    0.824144|    0.012703|
|         822|   -4.983852|   -7.234444|    0.824146|    0.012703|
|         823|   -5.003030|   -7.234270|    0.824148|    0.012703|
|         824|   -5.022807|   -7.234012|    0.824149|    0.012703|
|         825|   -5.043774|   -7.233720|    0.824151|    0.012703|
|         826|   -5.065477|   -7.233449|    0.824152|    0.012703|
|         827|   -5.086687|   -7.233251|    0.824152|    0.012703|
|         828|   -5.105945|   -7.233182|    0.824153|    0.012702|
|         829|   -5.122054|   -7.233289|    0.824153|    0.012702|
|         830|   -5.134392|   -7.233616|    0.824154|    0.012702|
|         831|   -5.143033|   -7.234199|    0.824154|    0.012702|
|         832|   -5.148720|   -7.235064|    0.824153|    0.012702|
|         833|   -5.152684|   -7.236228|    0.824153|    0.012702|
|         834|   -5.156341|   -7.237697|    0.824152|    0.012701|
|         835|   -5.160970|   -7.239467|    0.824151|    0.012701|
|         836|   -5.167479|   -7.241528|    0.824150|    0.012701|
|         837|   -5.176301|   -7.243860|    0.824149|    0.012701|
|         838|   -5.187378|   -7.246436|    0.824148|    0.012701|
|         839|   -5.200199|   -7.249227|    0.824146|    0.012701|
|         840|   -5.213858|   -7.252197|    0.824145|    0.012700|
|         841|   -5.227186|   -7.255312|    0.824143|    0.012700|
|         842|   -5.238969|   -7.258535|    0.824141|    0.012700|
|         843|   -5.248256|   -7.261830|    0.824139|    0.012700|
|         844|   -5.254650|   -7.265166|    0.824138|    0.012700|
|         845|   -5.258433|   -7.268511|    0.824136|    0.012700|
|         846|   -5.260436|   -7.271838|    0.824134|    0.012699|
|         847|   -5.261742|   -7.275125|    0.824132|    0.012699|
|         848|   -5.263373|   -7.278350|    0.824130|    0.012699|
|         849|   -5.266069|   -7.281498|    0.824128|    0.012699|
|         850|   -5.270205|   -7.284554|    0.824126|    0.012699|
|         851|   -5.275802|   -7.287509|    0.824123|    0.012699|
|         852|   -5.282608|   -7.290355|    0.824121|    0.012699|
|         853|   -5.290200|   -7.293087|    0.824119|    0.012699|
|         854|   -5.298106|   -7.295697|    0.824117|    0.012699|
|         855|   -5.305906|   -7.298180|    0.824115|    0.012699|
|         856|   -5.313319|   -7.300530|    0.824113|    0.012699|
|         857|   -5.320240|   -7.302741|    0.824111|    0.012699|
|         858|   -5.326728|   -7.304809|    0.824108|    0.012699|
|         859|   -5.332960|   -7.306730|    0.824106|    0.012699|
|         860|   -5.339168|   -7.308501|    0.824104|    0.012699|
|         861|   -5.345579|   -7.310120|    0.824101|    0.012699|
|         862|   -5.352373|   -7.311590|    0.824099|    0.012699|
|         863|   -5.359668|   -7.312914|    0.824097|    0.012700|
|         864|   -5.367517|   -7.314102|    0.824094|    0.012700|
|         865|   -5.375926|   -7.315166|    0.824092|    0.012700|
|         866|   -5.384873|   -7.316125|    0.824089|    0.012700|
|         867|   -5.394325|   -7.317004|    0.824087|    0.012700|
|         868|   -5.404252|   -7.317830|    0.824084|    0.012700|
|         869|   -5.414635|   -7.318635|    0.824082|    0.012701|
|         870|   -5.425469|   -7.319454|    0.824079|    0.012701|
|         871|   -5.436751|   -7.320320|    0.824077|    0.012701|
|         872|   -5.448482|   -7.321269|    0.824075|    0.012701|
|         873|   -5.460653|   -7.322334|    0.824072|    0.012701|
|         874|   -5.473246|   -7.323542|    0.824070|    0.012702|
|         875|   -5.486222|   -7.324920|    0.824068|    0.012702|
|         876|   -5.499525|   -7.326484|    0.824065|    0.012702|
|         877|   -5.513082|   -7.328246|    0.824063|    0.012702|
|         878|   -5.526800|   -7.330209|    0.824061|    0.012703|
|         879|   -5.540571|   -7.332369|    0.824059|    0.012703|
|         880|   -5.554276|   -7.334711|    0.824058|    0.012703|
|         881|   -5.567782|   -7.337214|    0.824056|    0.012703|
|         882|   -5.580950|   -7.339847|    0.824055|    0.012704|
|         883|   -5.593640|   -7.342575|    0.824053|    0.012704|
|         884|   -5.605708|   -7.345355|    0.824052|    0.012704|
|         885|   -5.617022|   -7.348141|    0.824051|    0.012704|
|         886|   -5.627460|   -7.350886|    0.824051|    0.012705|
|         887|   -5.636925|   -7.353542|    0.824050|    0.012705|
|         888|   -5.645341|   -7.356066|    0.824050|    0.012705|
|         889|   -5.652666|   -7.358418|    0.824049|    0.012705|
|         890|   -5.658889|   -7.360566|    0.824049|    0.012705|
|         891|   -5.664035|   -7.362487|    0.824049|    0.012706|
|         892|   -5.668156|   -7.364170|    0.824050|    0.012706|
|         893|   -5.671332|   -7.365612|    0.824050|    0.012706|
|         894|   -5.673663|   -7.366824|    0.824051|    0.012706|
|         895|   -5.675260|   -7.367826|    0.824051|    0.012707|
|         896|   -5.676245|   -7.368645|    0.824052|    0.012707|
|         897|   -5.676736|   -7.369317|    0.824053|    0.012707|
|         898|   -5.676854|   -7.369883|    0.824055|    0.012707|
|         899|   -5.676708|   -7.370384|    0.824056|    0.012707|
|         900|   -5.676403|   -7.370862|    0.824057|    0.012708|
|         901|   -5.676030|   -7.371358|    0.824059|    0.012704|
+-----------------------------------------------------------------------+
|Fixed CL Mode                           |Value                         |
+-----------------------------------------------------------------------+
|Current CL                              |0.824059                      |
|Target CL                               |0.824                         |
|Previous AOA                            |2.77413                       |
[...]
|        5298|   -6.058182|   -7.843018|    0.824239|    0.012703|
|        5299|   -6.065389|   -7.846791|    0.824239|    0.012703|
|        5300|   -6.072254|   -7.850544|    0.824239|    0.012703|
|        5301|   -6.078736|   -7.854272|    0.824239|    0.012703|
|        5302|   -6.084802|   -7.857966|    0.824239|    0.012703|
|        5303|   -6.090431|   -7.861617|    0.824239|    0.012703|
|        5304|   -6.095610|   -7.865217|    0.824239|    0.012703|
|        5305|   -6.100340|   -7.868758|    0.824239|    0.012703|
|        5306|   -6.104631|   -7.872233|    0.824239|    0.012703|
|        5307|   -6.108504|   -7.875638|    0.824239|    0.012703|
|        5308|   -6.111987|   -7.878969|    0.824240|    0.012703|
|        5309|   -6.115121|   -7.882228|    0.824240|    0.012703|
|        5310|   -6.117948|   -7.885418|    0.824240|    0.012703|
|        5311|   -6.120519|   -7.888548|    0.824240|    0.012703|
|        5312|   -6.122886|   -7.891628|    0.824240|    0.012703|
|        5313|   -6.125103|   -7.894672|    0.824240|    0.012703|
|        5314|   -6.127224|   -7.897697|    0.824240|    0.012703|
|        5315|   -6.129302|   -7.900720|    0.824240|    0.012703|
|        5316|   -6.131385|   -7.903761|    0.824240|    0.012703|
|        5317|   -6.133520|   -7.906840|    0.824240|    0.012703|
|        5318|   -6.135749|   -7.909977|    0.824240|    0.012703|
|        5319|   -6.138108|   -7.913191|    0.824240|    0.012703|
|        5320|   -6.140626|   -7.916498|    0.824241|    0.012703|
|        5321|   -6.143328|   -7.919915|    0.824241|    0.012703|
|        5322|   -6.146232|   -7.923453|    0.824241|    0.012703|
|        5323|   -6.149348|   -7.927122|    0.824241|    0.012703|
|        5324|   -6.152680|   -7.930929|    0.824241|    0.012703|
|        5325|   -6.156225|   -7.934876|    0.824241|    0.012703|
|        5326|   -6.159973|   -7.938963|    0.824241|    0.012703|
|        5327|   -6.163908|   -7.943187|    0.824241|    0.012703|
|        5328|   -6.168008|   -7.947543|    0.824242|    0.012704|
|        5329|   -6.172242|   -7.952021|    0.824242|    0.012704|
|        5330|   -6.176578|   -7.956611|    0.824242|    0.012704|
|        5331|   -6.180977|   -7.961301|    0.824242|    0.012704|
|        5332|   -6.185396|   -7.966078|    0.824242|    0.012704|
|        5333|   -6.189791|   -7.970928|    0.824242|    0.012704|
|        5334|   -6.194114|   -7.975836|    0.824242|    0.012704|
|        5335|   -6.198321|   -7.980789|    0.824242|    0.012704|
|        5336|   -6.202368|   -7.985775|    0.824242|    0.012704|
|        5337|   -6.206212|   -7.990783|    0.824242|    0.012704|
|        5338|   -6.209819|   -7.995803|    0.824242|    0.012704|
|        5339|   -6.213159|   -8.000828|    0.824243|    0.012705|
|        5340|   -6.216212|   -8.005855|    0.824243|    0.012705|
|        5341|   -6.218963|   -8.010880|    0.824243|    0.012705|
|        5342|   -6.221410|   -8.015903|    0.824243|    0.012705|
|        5343|   -6.223559|   -8.020929|    0.824243|    0.012705|
|        5344|   -6.225425|   -8.025960|    0.824243|    0.012705|
|        5345|   -6.227033|   -8.031003|    0.824243|    0.012705|
|        5346|   -6.228414|   -8.036066|    0.824243|    0.012705|
|        5347|   -6.229609|   -8.041157|    0.824243|    0.012705|
|        5348|   -6.230660|   -8.046286|    0.824243|    0.012705|
|        5349|   -6.231615|   -8.051462|    0.824243|    0.012705|
|        5350|   -6.232524|   -8.056693|    0.824243|    0.012705|
|        5351|   -6.233436|   -8.061989|    0.824243|    0.012705|
|        5352|   -6.234403|   -8.067354|    0.824243|    0.012705|
|        5353|   -6.235472|   -8.072795|    0.824243|    0.012705|
|        5354|   -6.236688|   -8.078315|    0.824243|    0.012705|
|        5355|   -6.238093|   -8.083913|    0.824243|    0.012705|
|        5356|   -6.239726|   -8.089590|    0.824243|    0.012706|
|        5357|   -6.241619|   -8.095340|    0.824243|    0.012706|
|        5358|   -6.243805|   -8.101157|    0.824243|    0.012706|
|        5359|   -6.246303|   -8.107033|    0.824243|    0.012706|
|        5360|   -6.249130|   -8.112955|    0.824242|    0.012706|
|        5361|   -6.252299|   -8.118912|    0.824242|    0.012706|
|        5362|   -6.255823|   -8.124886|    0.824242|    0.012706|
|        5363|   -6.259706|   -8.130863|    0.824242|    0.012706|
|        5364|   -6.263932|   -8.136823|    0.824242|    0.012706|
|        5365|   -6.268493|   -8.142750|    0.824242|    0.012706|
|        5366|   -6.273372|   -8.148626|    0.824242|    0.012706|
|        5367|   -6.278550|   -8.154432|    0.824242|    0.012705|
|        5368|   -6.284000|   -8.160152|    0.824242|    0.012705|
|        5369|   -6.289690|   -8.165768|    0.824241|    0.012705|
|        5370|   -6.295582|   -8.171269|    0.824241|    0.012705|
|        5371|   -6.301635|   -8.176641|    0.824241|    0.012705|
|        5372|   -6.307804|   -8.181879|    0.824241|    0.012705|
|        5373|   -6.314038|   -8.186978|    0.824241|    0.012705|
|        5374|   -6.320285|   -8.191939|    0.824241|    0.012705|
|        5375|   -6.326489|   -8.196766|    0.824241|    0.012705|
|        5376|   -6.332594|   -8.201469|    0.824240|    0.012705|
|        5377|   -6.338544|   -8.206058|    0.824240|    0.012705|
|        5378|   -6.344284|   -8.210549|    0.824240|    0.012705|
|        5379|   -6.349763|   -8.214960|    0.824240|    0.012705|
|        5380|   -6.354932|   -8.219311|    0.824240|    0.012705|
|        5381|   -6.359752|   -8.223621|    0.824240|    0.012705|
|        5382|   -6.364187|   -8.227914|    0.824240|    0.012705|
|        5383|   -6.368211|   -8.232211|    0.824239|    0.012705|
|        5384|   -6.371805|   -8.236535|    0.824239|    0.012704|
|        5385|   -6.374962|   -8.240908|    0.824239|    0.012704|
|        5386|   -6.377680|   -8.245350|    0.824239|    0.012704|
|        5387|   -6.379967|   -8.249880|    0.824239|    0.012704|
|        5388|   -6.381839|   -8.254515|    0.824239|    0.012704|
|        5389|   -6.383316|   -8.259268|    0.824239|    0.012704|
|        5390|   -6.384424|   -8.264151|    0.824239|    0.012704|
|        5391|   -6.385194|   -8.269171|    0.824239|    0.012704|
|        5392|   -6.385657|   -8.274333|    0.824239|    0.012704|
|        5393|   -6.385847|   -8.279637|    0.824239|    0.012704|
|        5394|   -6.385796|   -8.285082|    0.824239|    0.012704|
|        5395|   -6.385536|   -8.290660|    0.824239|    0.012703|
|        5396|   -6.385097|   -8.296363|    0.824239|    0.012703|
|        5397|   -6.384505|   -8.302178|    0.824239|    0.012703|
|        5398|   -6.383785|   -8.308090|    0.824239|    0.012703|
|        5399|   -6.382957|   -8.314083|    0.824239|    0.012703|
|        5400|   -6.382040|   -8.320136|    0.824239|    0.012703|
|        5401|   -6.381049|   -8.326229|    0.824239|    0.012703|
|        5402|   -6.379995|   -8.332340|    0.824239|    0.012703|
|        5403|   -6.378889|   -8.338445|    0.824239|    0.012703|
|        5404|   -6.377737|   -8.344522|    0.824239|    0.012702|
|        5405|   -6.376545|   -8.350549|    0.824239|    0.012702|
|        5406|   -6.375318|   -8.356503|    0.824239|    0.012702|
|        5407|   -6.374059|   -8.362365|    0.824239|    0.012702|
|        5408|   -6.372769|   -8.368115|    0.824239|    0.012702|
|        5409|   -6.371450|   -8.373737|    0.824239|    0.012702|
|        5410|   -6.370104|   -8.379215|    0.824239|    0.012702|
|        5411|   -6.368733|   -8.384538|    0.824239|    0.012702|
|        5412|   -6.367338|   -8.389694|    0.824239|    0.012702|
|        5413|   -6.365921|   -8.394676|    0.824239|    0.012702|
|        5414|   -6.364486|   -8.399475|    0.824239|    0.012702|
|        5415|   -6.363035|   -8.404089|    0.824239|    0.012702|
|        5416|   -6.361573|   -8.408513|    0.824239|    0.012701|
|        5417|   -6.360105|   -8.412746|    0.824239|    0.012701|
|        5418|   -6.358636|   -8.416786|    0.824239|    0.012701|
|        5419|   -6.357173|   -8.420633|    0.824239|    0.012701|
|        5420|   -6.355723|   -8.424284|    0.824239|    0.012701|
|        5421|   -6.354295|   -8.427738|    0.824239|    0.012701|
|        5422|   -6.352899|   -8.430993|    0.824238|    0.012701|
|        5423|   -6.351545|   -8.434048|    0.824238|    0.012701|
|        5424|   -6.350243|   -8.436902|    0.824238|    0.012701|
|        5425|   -6.349008|   -8.439554|    0.824238|    0.012701|
|        5426|   -6.347852|   -8.442003|    0.824238|    0.012701|
|        5427|   -6.346790|   -8.444252|    0.824238|    0.012701|
|        5428|   -6.345836|   -8.446303|    0.824238|    0.012701|
|        5429|   -6.345005|   -8.448159|    0.824238|    0.012701|
|        5430|   -6.344313|   -8.449825|    0.824238|    0.012701|
|        5431|   -6.343777|   -8.451307|    0.824238|    0.012701|
|        5432|   -6.343413|   -8.452613|    0.824238|    0.012701|
|        5433|   -6.343239|   -8.453753|    0.824238|    0.012701|
|        5434|   -6.343270|   -8.454742|    0.824237|    0.012701|
|        5435|   -6.343522|   -8.455593|    0.824237|    0.012701|
|        5436|   -6.344012|   -8.456325|    0.824237|    0.012701|
|        5437|   -6.344753|   -8.456956|    0.824237|    0.012701|
|        5438|   -6.345759|   -8.457506|    0.824237|    0.012701|
|        5439|   -6.347042|   -8.457996|    0.824237|    0.012701|
|        5440|   -6.348612|   -8.458447|    0.824237|    0.012701|
|        5441|   -6.350477|   -8.458881|    0.824236|    0.012701|
|        5442|   -6.352644|   -8.459317|    0.824236|    0.012701|
|        5443|   -6.355115|   -8.459777|    0.824236|    0.012701|
|        5444|   -6.357892|   -8.460278|    0.824236|    0.012701|
|        5445|   -6.360973|   -8.460840|    0.824236|    0.012701|
|        5446|   -6.364352|   -8.461478|    0.824236|    0.012701|
|        5447|   -6.368023|   -8.462206|    0.824235|    0.012701|
|        5448|   -6.371972|   -8.463040|    0.824235|    0.012701|
|        5449|   -6.376182|   -8.463989|    0.824235|    0.012702|
|        5450|   -6.380632|   -8.465065|    0.824235|    0.012702|
|        5451|   -6.385298|   -8.466276|    0.824234|    0.012702|
|        5452|   -6.390151|   -8.467627|    0.824234|    0.012702|
|        5453|   -6.395159|   -8.469123|    0.824234|    0.012702|
|        5454|   -6.400284|   -8.470768|    0.824234|    0.012702|
|        5455|   -6.405485|   -8.472562|    0.824233|    0.012702|
|        5456|   -6.410718|   -8.474506|    0.824233|    0.012702|
|        5457|   -6.415935|   -8.476599|    0.824233|    0.012702|
|        5458|   -6.421086|   -8.478839|    0.824233|    0.012702|
|        5459|   -6.426119|   -8.481226|    0.824232|    0.012702|
|        5460|   -6.430980|   -8.483754|    0.824232|    0.012702|
|        5461|   -6.435619|   -8.486422|    0.824232|    0.012702|
|        5462|   -6.439984|   -8.489225|    0.824232|    0.012702|
|        5463|   -6.444027|   -8.492159|    0.824231|    0.012702|
|        5464|   -6.447705|   -8.495219|    0.824231|    0.012703|
|        5465|   -6.450981|   -8.498400|    0.824231|    0.012703|
|        5466|   -6.453823|   -8.501698|    0.824230|    0.012703|
|        5467|   -6.456209|   -8.505108|    0.824230|    0.012703|
|        5468|   -6.458124|   -8.508622|    0.824230|    0.012703|
|        5469|   -6.459564|   -8.512236|    0.824229|    0.012703|
|        5470|   -6.460531|   -8.515942|    0.824229|    0.012703|
|        5471|   -6.461038|   -8.519735|    0.824229|    0.012703|
|        5472|   -6.461106|   -8.523604|    0.824228|    0.012703|
|        5473|   -6.460765|   -8.527543|    0.824228|    0.012703|
|        5474|   -6.460047|   -8.531541|    0.824228|    0.012703|
|        5475|   -6.458992|   -8.535587|    0.824227|    0.012703|
|        5476|   -6.457645|   -8.539671|    0.824227|    0.012703|
|        5477|   -6.456049|   -8.543781|    0.824227|    0.012703|
|        5478|   -6.454253|   -8.547902|    0.824226|    0.012703|
|        5479|   -6.452304|   -8.552022|    0.824226|    0.012703|
|        5480|   -6.450247|   -8.556127|    0.824225|    0.012703|
|        5481|   -6.448127|   -8.560200|    0.824225|    0.012703|
|        5482|   -6.445987|   -8.564227|    0.824225|    0.012703|
|        5483|   -6.443865|   -8.568193|    0.824224|    0.012703|
|        5484|   -6.441800|   -8.572082|    0.824224|    0.012703|
|        5485|   -6.439823|   -8.575879|    0.824224|    0.012703|
|        5486|   -6.437965|   -8.579571|    0.824223|    0.012703|
|        5487|   -6.436253|   -8.583143|    0.824223|    0.012703|
|        5488|   -6.434710|   -8.586585|    0.824223|    0.012703|
|        5489|   -6.433355|   -8.589884|    0.824222|    0.012703|
|        5490|   -6.432206|   -8.593033|    0.824222|    0.012703|
|        5491|   -6.431277|   -8.596025|    0.824222|    0.012703|
|        5492|   -6.430579|   -8.598855|    0.824221|    0.012703|
|        5493|   -6.430122|   -8.601521|    0.824221|    0.012703|
|        5494|   -6.429911|   -8.604022|    0.824221|    0.012703|
|        5495|   -6.429952|   -8.606362|    0.824220|    0.012703|
|        5496|   -6.430247|   -8.608545|    0.824220|    0.012703|
|        5497|   -6.430797|   -8.610577|    0.824220|    0.012703|
|        5498|   -6.431600|   -8.612467|    0.824219|    0.012703|
|        5499|   -6.432656|   -8.614224|    0.824219|    0.012689|
+-----------------------------------------------------------------------+
|Fixed CL Mode (Finite Difference)       |Value                         |
+-----------------------------------------------------------------------+
|Delta CL / Delta AoA                    |0.219456                      |
|Delta CD / Delta CL                     |0.0297799                     |
|Delta CMz / Delta CL                    |-0.000795711                  |
+-----------------------------------------------------------------------+
Writing Flow Meta-Data file: flow.meta

----------------------------- Solver Exit -------------------------------

Maximum number of iterations reached (ITER = 5500) before convergence.
+-----------------------------------------------------------------------+
|      Convergence Field     |     Value    |   Criterion  |  Converged |
+-----------------------------------------------------------------------+
|                    rms[Rho]|      -6.43266|         < -12|          No|
+-----------------------------------------------------------------------+
-------------------------------------------------------------------------

--------------------------- Finalizing Solver ---------------------------
Deleted CNumerics container.
Deleted CIntegration container.
Deleted CSolver container.
Deleted CIteration container.
Deleted CInterface container.
Deleted CGeometry container.
Deleted CFreeFormDefBox class.
Deleted CSurfaceMovement class.
Deleted CVolumetricMovement class.
Deleted CConfig container.
Deleted nInst container.
Deleted COutput class.
-------------------------------------------------------------------------

------------------------- Exit Success (SU2_CFD) ------------------------


-------------------------------------------------------------------------
|    ___ _   _ ___                                                      |
|   / __| | | |_  )   Release 8.0.0 "Harrier"                           |
|   \__ \ |_| |/ /                                                      |
|   |___/\___//___|   Suite (Solution Exporting Code)                   |
|                                                                       |
-------------------------------------------------------------------------
| SU2 Project Website: https://su2code.github.io                        |
|                                                                       |
| The SU2 Project is maintained by the SU2 Foundation                   |
| (http://su2foundation.org)                                            |
-------------------------------------------------------------------------
| Copyright 2012-2023, SU2 Contributors                                 |
|                                                                       |
| SU2 is free software; you can redistribute it and/or                  |
| modify it under the terms of the GNU Lesser General Public            |
| License as published by the Free Software Foundation; either          |
| version 2.1 of the License, or (at your option) any later version.    |
|                                                                       |
| SU2 is distributed in the hope that it will be useful,                |
| but WITHOUT ANY WARRANTY; without even the implied warranty of        |
| MERCHANTABILITY or FITNESS FOR A PARTICULAR PURPOSE. See the GNU      |
| Lesser General Public License for more details.                       |
|                                                                       |
| You should have received a copy of the GNU Lesser General Public      |
| License along with SU2. If not, see <http://www.gnu.org/licenses/>.   |
-------------------------------------------------------------------------

----------------- Physical Case Definition ( Zone 0 ) -------------------
Input mesh file name: mesh_RAE2822_turb_deform.su2

-------------------- Output Information ( Zone 0 ) ----------------------
The tabular file format is CSV (.csv).
Flow variables file name: flow.

------------- Config File Boundary Information ( Zone 0 ) ---------------
+-----------------------------------------------------------------------+
|                        Marker Type|                        Marker Name|
+-----------------------------------------------------------------------+
|                          Far-field|                           FARFIELD|
+-----------------------------------------------------------------------+
|                     Heat flux wall|                            AIRFOIL|
+-----------------------------------------------------------------------+
Two dimensional problem.
13937 grid points before partitioning.
22842 volume elements before partitioning.
2 surface markers.
192 boundary elements in index 0 (Marker = AIRFOIL).
40 boundary elements in index 1 (Marker = FARFIELD).
Executing the partitioning functions.
Building the graph adjacency structure.
Calling ParMETIS... graph partitioning complete (831 edge cuts).
Distributing ParMETIS coloring.
Rebalancing vertices.
Rebalancing volume element connectivity.
Rebalancing markers and surface elements.
14875 vertices including ghost points. 
23674 interior elements including halo cells. 
18780 triangles.
4894 quadrilaterals.
Establishing MPI communication patterns.
Identify vertices.
Storing a mapping from global to local point index.

------------------------- Solution Postprocessing -----------------------
Reading and storing the solution from restart_flow.
Volume output fields: COORDINATES, SOLUTION
  Info: Ignoring the following screen output fields:
  RMS_DENSITY, RMS_NU_TILDE, LIFT, DRAG
Screen output fields: INNER_ITER
  Info: Ignoring the following history output groups:
  RMS_RES, AERO_COEFF
History output group(s): ITER
Warning: No (valid) fields chosen for convergence monitoring. Convergence monitoring inactive.
Warning: No (valid) fields chosen for time convergence monitoring. Time convergence monitoring inactive.
|Paraview                           |flow.vtu                           |
|Paraview surface                   |surface_flow.vtu                   |
|CSV file                           |surface_flow.csv                   |

------------------------- Finalize Solver -------------------------
Deleted CGeometry container.
Deleted CSolver class.
Deleted CConfig container.
Deleted COutput class.

Completed in 0.017011 seconds on 6 cores.

------------------------- Exit Success (SU2_SOL) ------------------------

