
-------------------------------------------------------------------------
|    ___ _   _ ___                                                      |
|   / __| | | |_  )   Release 8.0.0 "Harrier"                           |
|   \__ \ |_| |/ /                                                      |
|   |___/\___//___|   Suite (Computational Fluid Dynamics Code)         |
|                                                                       |
-------------------------------------------------------------------------
| SU2 Project Website: https://su2code.github.io                        |
|                                                                       |
| The SU2 Project is maintained by the SU2 Foundation                   |
| (http://su2foundation.org)                                            |
-------------------------------------------------------------------------
| Copyright 2012-2023, SU2 Contributors                                 |
|                                                                       |
| SU2 is free software; you can redistribute it and/or                  |
| modify it under the terms of the GNU Lesser General Public            |
| License as published by the Free Software Foundation; either          |
| version 2.1 of the License, or (at your option) any later version.    |
|                                                                       |
| SU2 is distributed in the hope that it will be useful,                |
| but WITHOUT ANY WARRANTY; without even the implied warranty of        |
| MERCHANTABILITY or FITNESS FOR A PARTICULAR PURPOSE. See the GNU      |
| Lesser General Public License for more details.                       |
|                                                                       |
| You should have received a copy of the GNU Lesser General Public      |
| License along with SU2. If not, see <http://www.gnu.org/licenses/>.   |
-------------------------------------------------------------------------

Parsing config file for zone 0

----------------- Physical Case Definition ( Zone 0 ) -------------------
Compressible RANS equations.
Turbulence model: Spalart-Allmaras-noft2
Hybrid RANS/LES: No Hybrid RANS/LES
Mach number: 0.734.
Angle of attack (AoA): 2.31 deg, and angle of sideslip (AoS): 0 deg.
Reynolds number: 6.5e+06. Reference length 1.
Fixed CL mode, target value: 0.824.
Reading and writing binary SU2 native restart files.
Read flow solution from: solution_flow.dat.
Dimensional simulation.
The reference area is 1 m^2.
The semi-span will be computed using the max y(3D) value.
The reference length is 1 m.
Reference origin for moment evaluation is (0.25, 0, 0).
Surface(s) where the force coefficients are evaluated: AIRFOIL.

Surface(s) plotted in the output file: AIRFOIL.
Surface(s) affected by the design variables: AIRFOIL.
Input mesh file name: mesh_RAE2822_turb_deform.su2

--------------- Space Numerical Integration ( Zone 0 ) ------------------
Jameson-Schmidt-Turkel scheme (2nd order in space) for the flow inviscid terms.
JST viscous coefficients (2nd & 4th): 0.5, 0.02.
The method includes a grid stretching correction (p = 0.3).
Scalar upwind solver for the turbulence model.
First order integration in space.
Average of gradients with correction (viscous flow terms).
Average of gradients with correction (viscous turbulence terms).
Gradient for viscous and source terms: inverse-distance weighted Least-Squares.

--------------- Time Numerical Integration  ( Zone 0 ) ------------------
Local time stepping (steady state simulation).
Euler implicit method for the flow equations.
FGMRES is used for solving the linear system.
Using a ILU(0) preconditioning.
Convergence criteria of the linear solver: 1e-06.
Max number of linear iterations: 10.
No CFL adaptation.
Courant-Friedrichs-Lewy number:       10
Euler implicit time integration for the turbulence model.

------------------ Convergence Criteria  ( Zone 0 ) ---------------------
Maximum number of solver subiterations: 5500.
Begin convergence monitoring at iteration 10.
Residual minimum value: 1e-12.
Cauchy series min. value: 1e-06.
Number of Cauchy elements: 100.
Begin windowed time average at iteration 0.

-------------------- Output Information ( Zone 0 ) ----------------------
File writing frequency: 
+------------------------------------+
|                     File| Frequency|
+------------------------------------+
|                  RESTART|     10000|
|                 PARAVIEW|     10000|
|         SURFACE_PARAVIEW|     10000|
|              SURFACE_CSV|     10000|
+------------------------------------+
Writing the convergence history file every 1 inner iterations.
Writing the screen convergence history every 1 inner iterations.
The tabular file format is CSV (.csv).
Convergence history file name: history_direct.
Forces breakdown file name: forces_breakdown.dat.
Surface file name: surface_flow.
Volume file name: flow.
Restart file name: restart_flow.dat.

------------- Config File Boundary Information ( Zone 0 ) ---------------
+-----------------------------------------------------------------------+
|                        Marker Type|                        Marker Name|
+-----------------------------------------------------------------------+
|                          Far-field|                           FARFIELD|
+-----------------------------------------------------------------------+
|                     Heat flux wall|                            AIRFOIL|
+-----------------------------------------------------------------------+

-------------------- Output Preprocessing ( Zone 0 ) --------------------

WARNING: SURFACE_PRESSURE_DROP can only be computed for at least 2 surfaces (outlet, inlet, ...)

Screen output fields: INNER_ITER, RMS_DENSITY, RMS_NU_TILDE, LIFT, DRAG
History output group(s): ITER, RMS_RES, AERO_COEFF
Convergence field(s): RMS_DENSITY
Warning: No (valid) fields chosen for time convergence monitoring. Time convergence monitoring inactive.
Volume output fields: COORDINATES, SOLUTION, PRIMITIVE

------------------- Geometry Preprocessing ( Zone 0 ) -------------------
Two dimensional problem.
13937 grid points before partitioning.
22842 volume elements before partitioning.
2 surface markers.
192 boundary elements in index 0 (Marker = AIRFOIL).
40 boundary elements in index 1 (Marker = FARFIELD).
Executing the partitioning functions.
Building the graph adjacency structure.
Calling ParMETIS... graph partitioning complete (831 edge cuts).
Distributing ParMETIS coloring.
Rebalancing vertices.
Rebalancing volume element connectivity.
Rebalancing markers and surface elements.
14875 vertices including ghost points. 
23674 interior elements including halo cells. 
18780 triangles.
4894 quadrilaterals.
Establishing MPI communication patterns.
Setting point connectivity.
Renumbering points (Reverse Cuthill McKee Ordering).
Recomputing point connectivity.
Setting element connectivity.
Checking the numerical grid orientation.
All volume elements are correctly orientend.
All surface elements are correctly orientend.
Identifying edges and vertices.
Setting the control volume structure.
Area of the computational grid: 32209.9.
Searching for the closest normal neighbors to the surfaces.
Storing a mapping from global to local point index.
Compute the surface curvature.
Max K: 185.406. Mean K: 7.9973. Standard deviation K: 25.0125.
Checking for periodicity.
Computing mesh quality statistics for the dual control volumes.
+--------------------------------------------------------------+
|           Mesh Quality Metric|        Minimum|        Maximum|
+--------------------------------------------------------------+
|    Orthogonality Angle (deg.)|        74.8885|        89.9995|
|     CV Face Area Aspect Ratio|        1.00357|        3358.38|
|           CV Sub-Volume Ratio|        1.00056|         1216.7|
+--------------------------------------------------------------+
Finding max control volume width.
Communicating number of neighbors.
Wetted area = 2.02166 m.
Area projection in the x-plane = 0.125969 m, y-plane = 0.995873 m.
Max. coordinate in the x-direction = 1 m, y-direction = 0.0619459 m.
Min. coordinate in the x-direction = 0 m, y-direction = -0.0609012 m.
Computing wall distances.

-------------------- Solver Preprocessing ( Zone 0 ) --------------------
WARNING: AoA in the solution file (2.77886 deg.) +
         AoA offset in mesh file (0 deg.) = 2.77886 deg.
WARNING: SU2 will use the dCD/dCL provided in the direct solution file: 0.018787.
WARNING: SU2 will use the dCMz/dCL provided in the direct solution file: 0.00854699.
Viscous flow: Computing pressure using the ideal gas law
based on the free-stream temperature and a density computed
from the Reynolds number.
Force coefficients computed using free-stream values.

-- Models:
+------------------------------------------------------------------------------+
|          Viscosity Model|        Conductivity Model|              Fluid Model|
+------------------------------------------------------------------------------+
|               SUTHERLAND|          CONSTANT_PRANDTL|             STANDARD_AIR|
+------------------------------------------------------------------------------+
-- Fluid properties:
+------------------------------------------------------------------------------+
|                  Name|    Dim. value|    Ref. value|      Unit|Non-dim. value|
+------------------------------------------------------------------------------+
|        Ref. Viscosity|     1.716e-05|             1|   N.s/m^2|     1.716e-05|
|      Sutherland Temp.|        273.15|             1|         K|        273.15|
|     Sutherland Const.|         110.4|             1|         K|         110.4|
+------------------------------------------------------------------------------+
|        Prandtl (Lam.)|             -|             -|         -|          0.71|
|       Prandtl (Turb.)|             -|             -|         -|           0.9|
+------------------------------------------------------------------------------+
|          Gas Constant|       287.058|             1|  N.m/kg.K|       287.058|
|      Spec. Heat Ratio|             -|             -|         -|           1.4|
+------------------------------------------------------------------------------+
-- Initial and free-stream conditions:
+------------------------------------------------------------------------------+
|                  Name|    Dim. value|    Ref. value|      Unit|Non-dim. value|
+------------------------------------------------------------------------------+
|       Static Pressure|         38515|             1|        Pa|         38515|
|               Density|      0.465631|             1|    kg/m^3|      0.465631|
|           Temperature|        288.15|             1|         K|        288.15|
|          Total Energy|        237984|             1|   m^2/s^2|        237984|
|            Velocity-X|       249.484|             1|       m/s|       249.484|
|            Velocity-Y|       12.1095|             1|       m/s|       12.1095|
|    Velocity Magnitude|       249.778|             1|       m/s|       249.778|
+------------------------------------------------------------------------------+
|             Viscosity|    1.7893e-05|             1|   N.s/m^2|    1.7893e-05|
|          Conductivity|             -|             1|   W/m^2.K|             -|
|     Turb. Kin. Energy|       233.959|             1|   m^2/s^2|       233.959|
|     Spec. Dissipation|        608834|             1|       1/s|        608834|
+------------------------------------------------------------------------------+
|           Mach Number|             -|             -|         -|         0.734|
|       Reynolds Number|             -|             -|         -|       6.5e+06|
+------------------------------------------------------------------------------+
Initialize Jacobian structure (Navier-Stokes). MG level: 0.
Initialize Jacobian structure (SA model).

------------------- Numerics Preprocessing ( Zone 0 ) -------------------

----------------- Integration Preprocessing ( Zone 0 ) ------------------

------------------- Iteration Preprocessing ( Zone 0 ) ------------------
Euler/Navier-Stokes/RANS fluid iteration.

------------------------------ Begin Solver -----------------------------

Simulation Run using the Single-zone Driver
WARNING: SU2 was not compiled for an AVX-capable architecture. Performance could be better,
         see https://su2code.github.io/docs_v7/Build-SU2-Linux-MacOS/#compiler-optimizations
+----------------------------------------------------------------+
|  Inner_Iter|    rms[Rho]|     rms[nu]|          CL|          CD|
+----------------------------------------------------------------+
|           0|   -4.763393|   -6.025573|    0.824041|    0.012117|
|           1|   -4.826944|   -6.142494|    0.824066|    0.012142|
|           2|   -4.898594|   -6.272300|    0.824074|    0.012154|
|           3|   -4.953830|   -6.410137|    0.824074|    0.012156|
|           4|   -4.988630|   -6.550445|    0.824071|    0.012155|
|           5|   -5.007034|   -6.667030|    0.824071|    0.012153|
|           6|   -5.014195|   -6.712652|    0.824072|    0.012152|
|           7|   -5.015162|   -6.694458|    0.824075|    0.012152|
|           8|   -5.013809|   -6.664697|    0.824078|    0.012153|
|           9|   -5.011718|   -6.648851|    0.824080|    0.012154|
|          10|   -5.008565|   -6.647728|    0.824082|    0.012155|
|          11|   -5.003456|   -6.652373|    0.824082|    0.012156|
|          12|   -4.995974|   -6.651509|    0.824083|    0.012157|
|          13|   -4.986419|   -6.637979|    0.824084|    0.012156|
|          14|   -4.975537|   -6.612596|    0.824086|    0.012156|
|          15|   -4.964185|   -6.581567|    0.824087|    0.012155|
|          16|   -4.953147|   -6.551515|    0.824089|    0.012154|
|          17|   -4.943062|   -6.527140|    0.824091|    0.012152|
|          18|   -4.934418|   -6.511231|    0.824093|    0.012151|
|          19|   -4.927561|   -6.505183|    0.824094|    0.012150|
|          20|   -4.922714|   -6.509302|    0.824093|    0.012148|
|          21|   -4.919979|   -6.522831|    0.824090|    0.012147|
|          22|   -4.919332|   -6.543826|    0.824084|    0.012146|
|          23|   -4.920615|   -6.569051|    0.824075|    0.012144|
|          24|   -4.923529|   -6.594237|    0.824063|    0.012142|
|          25|   -4.927639|   -6.615111|    0.824047|    0.012140|
|          26|   -4.932408|   -6.629072|    0.824029|    0.012137|
|          27|   -4.937257|   -6.636387|    0.824008|    0.012135|
|          28|   -4.941633|   -6.639735|    0.823984|    0.012131|
|          29|   -4.945090|   -6.642583|    0.823959|    0.012127|
|          30|   -4.947346|   -6.647794|    0.823934|    0.012123|
|          31|   -4.948308|   -6.657086|    0.823908|    0.012118|
|          32|   -4.948061|   -6.671060|    0.823883|    0.012113|
|          33|   -4.946832|   -6.689427|    0.823860|    0.012107|
|          34|   -4.944925|   -6.711242|    0.823838|    0.012100|
|          35|   -4.942674|   -6.735094|    0.823818|    0.012093|
|          36|   -4.940398|   -6.759291|    0.823800|    0.012086|
|          37|   -4.938369|   -6.782104|    0.823785|    0.012078|
|          38|   -4.936801|   -6.802053|    0.823773|    0.012070|
|          39|   -4.935839|   -6.818147|    0.823763|    0.012061|
|          40|   -4.935551|   -6.829996|    0.823755|    0.012052|
|          41|   -4.935930|   -6.837755|    0.823750|    0.012044|
|          42|   -4.936892|   -6.841928|    0.823748|    0.012035|
|          43|   -4.938289|   -6.843156|    0.823747|    0.012026|
|          44|   -4.939925|   -6.842063|    0.823749|    0.012017|
|          45|   -4.941583|   -6.839187|    0.823752|    0.012009|
|          46|   -4.943052|   -6.834963|    0.823758|    0.012001|
|          47|   -4.944157|   -6.829769|    0.823765|    0.011994|
|          48|   -4.944779|   -6.823989|    0.823773|    0.011987|
|          49|   -4.944863|   -6.817999|    0.823783|    0.011980|
|          50|   -4.944414|   -6.812190|    0.823794|    0.011974|
|          51|   -4.943479|   -6.806953|    0.823807|    0.011969|
|          52|   -4.942130|   -6.802651|    0.823821|    0.011964|
|          53|   -4.940443|   -6.799602|    0.823836|    0.011959|
|          54|   -4.938479|   -6.798065|    0.823851|    0.011955|
|          55|   -4.936281|   -6.798214|    0.823868|    0.011952|
|          56|   -4.933867|   -6.800132|    0.823886|    0.011949|
|          57|   -4.931234|   -6.803807|    0.823905|    0.011946|
|          58|   -4.928369|   -6.809129|    0.823925|    0.011944|
|          59|   -4.925252|   -6.815900|    0.823945|    0.011942|
|          60|   -4.921867|   -6.823869|    0.823966|    0.011941|
|          61|   -4.918210|   -6.832752|    0.823987|    0.011940|
|          62|   -4.914289|   -6.842259|    0.824008|    0.011939|
|          63|   -4.910128|   -6.852107|    0.824030|    0.011939|
|          64|   -4.905768|   -6.862044|    0.824051|    0.011939|
|          65|   -4.901259|   -6.871855|    0.824072|    0.011939|
|          66|   -4.896659|   -6.881367|    0.824092|    0.011940|
|          67|   -4.892023|   -6.890451|    0.824111|    0.011941|
|          68|   -4.887404|   -6.899016|    0.824129|    0.011942|
|          69|   -4.882843|   -6.906985|    0.824147|    0.011943|
|          70|   -4.878369|   -6.914292|    0.824163|    0.011944|
|          71|   -4.873996|   -6.920887|    0.824177|    0.011946|
|          72|   -4.869728|   -6.926714|    0.824190|    0.011948|
|          73|   -4.865556|   -6.931736|    0.824202|    0.011949|
|          74|   -4.861466|   -6.935931|    0.824212|    0.011951|
|          75|   -4.857441|   -6.939322|    0.824220|    0.011953|
|          76|   -4.853465|   -6.941940|    0.824228|    0.011955|
|          77|   -4.849525|   -6.943811|    0.824234|    0.011958|
|          78|   -4.845619|   -6.944969|    0.824238|    0.011960|
|          79|   -4.841751|   -6.945448|    0.824242|    0.011962|
|          80|   -4.837934|   -6.945276|    0.824245|    0.011964|
|          81|   -4.834192|   -6.944492|    0.824247|    0.011966|
|          82|   -4.830558|   -6.943157|    0.824249|    0.011968|
|          83|   -4.827070|   -6.941375|    0.824250|    0.011971|
|          84|   -4.823772|   -6.939280|    0.824251|    0.011973|
|          85|   -4.820711|   -6.937040|    0.824252|    0.011976|
|          86|   -4.817932|   -6.934836|    0.824253|    0.011978|
|          87|   -4.815480|   -6.932847|    0.824254|    0.011981|
|          88|   -4.813390|   -6.931237|    0.824255|    0.011983|
|          89|   -4.811695|   -6.930134|    0.824256|    0.011986|
|          90|   -4.810415|   -6.929626|    0.824257|    0.011989|
|          91|   -4.809558|   -6.929754|    0.824258|    0.011992|
|          92|   -4.809121|   -6.930508|    0.824260|    0.011995|
|          93|   -4.809087|   -6.931831|    0.824262|    0.011998|
|          94|   -4.809427|   -6.933630|    0.824264|    0.012002|
|          95|   -4.810099|   -6.935792|    0.824266|    0.012005|
|          96|   -4.811050|   -6.938199|    0.824268|    0.012009|
|          97|   -4.812218|   -6.940740|    0.824271|    0.012013|
|          98|   -4.813535|   -6.943304|    0.824273|    0.012017|
|          99|   -4.814929|   -6.945810|    0.824275|    0.012020|
|         100|   -4.816326|   -6.948204|    0.824278|    0.012024|
|         101|   -4.817658|   -6.950457|    0.824280|    0.012008|
+-----------------------------------------------------------------------+
|Fixed CL Mode                           |Value                         |
+-----------------------------------------------------------------------+
|Current CL                              |0.82428                       |
|Target CL                               |0.824                         |
|Previous AOA                            |2.77886                       |
|Changed AoA by                          |-0.00138949                   |
+-----------------------------------------------------------------------+
+----------------------------------------------------------------+
|  Inner_Iter|    rms[Rho]|     rms[nu]|          CL|          CD|
+----------------------------------------------------------------+
|         102|   -3.050355|   -6.879256|    0.824283|    0.012012|
|         103|   -3.433707|   -6.915095|    0.824284|    0.012016|
|         104|   -3.675966|   -6.927746|    0.824286|    0.012020|
|         105|   -3.755497|   -6.935496|    0.824287|    0.012024|
|         106|   -3.810858|   -6.941476|    0.824288|    0.012028|
|         107|   -3.882504|   -6.946465|    0.824288|    0.012031|
|         108|   -3.971040|   -6.950742|    0.824288|    0.012035|
|         109|   -4.063593|   -6.954485|    0.824288|    0.012038|
|         110|   -4.142692|   -6.957804|    0.824287|    0.012041|
|         111|   -4.198746|   -6.960734|    0.824285|    0.012044|
|         112|   -4.233167|   -6.963313|    0.824283|    0.012046|
|         113|   -4.250588|   -6.965651|    0.824280|    0.012049|
|         114|   -4.255975|   -6.967904|    0.824277|    0.012051|
|         115|   -4.255954|   -6.970199|    0.824274|    0.012053|
|         116|   -4.257254|   -6.972596|    0.824270|    0.012054|
|         117|   -4.264028|   -6.975115|    0.824266|    0.012055|
|         118|   -4.276988|   -6.977768|    0.824261|    0.012057|
|         119|   -4.294146|   -6.980577|    0.824256|    0.012057|
|         120|   -4.312333|   -6.983566|    0.824251|    0.012058|
|         121|   -4.328951|   -6.986749|    0.824246|    0.012058|
|         122|   -4.343148|   -6.990113|    0.824241|    0.012059|
|         123|   -4.355693|   -6.993617|    0.824235|    0.012058|
|         124|   -4.367898|   -6.997217|    0.824230|    0.012058|
|         125|   -4.380647|   -7.000865|    0.824225|    0.012058|
|         126|   -4.394090|   -7.004516|    0.824220|    0.012057|
|         127|   -4.407851|   -7.008149|    0.824215|    0.012057|
|         128|   -4.421365|   -7.011732|    0.824211|    0.012056|
|         129|   -4.434095|   -7.015230|    0.824207|    0.012055|
|         130|   -4.445629|   -7.018612|    0.824202|    0.012054|
|         131|   -4.455736|   -7.021853|    0.824198|    0.012053|
|         132|   -4.464439|   -7.024911|    0.824195|    0.012051|
|         133|   -4.472059|   -7.027744|    0.824191|    0.012050|
|         134|   -4.479164|   -7.030315|    0.824188|    0.012049|
|         135|   -4.486425|   -7.032591|    0.824185|    0.012047|
|         136|   -4.494437|   -7.034550|    0.824182|    0.012046|
|         137|   -4.503581|   -7.036203|    0.824179|    0.012045|
|         138|   -4.513952|   -7.037558|    0.824176|    0.012043|
|         139|   -4.525340|   -7.038632|    0.824173|    0.012041|
|         140|   -4.537252|   -7.039445|    0.824170|    0.012040|
|         141|   -4.548995|   -7.040032|    0.824167|    0.012038|
|         142|   -4.559812|   -7.040438|    0.824164|    0.012036|
|         143|   -4.569070|   -7.040720|    0.824161|    0.012035|
|         144|   -4.576440|   -7.040937|    0.824157|    0.012033|
|         145|   -4.581994|   -7.041138|    0.824153|    0.012031|
|         146|   -4.586164|   -7.041372|    0.824149|    0.012029|
|         147|   -4.589582|   -7.041678|    0.824144|    0.012027|
|         148|   -4.592889|   -7.042085|    0.824139|    0.012025|
|         149|   -4.596573|   -7.042613|    0.824134|    0.012023|
|         150|   -4.600889|   -7.043262|    0.824128|    0.012020|
|         151|   -4.605842|   -7.044020|    0.824121|    0.012018|
|         152|   -4.611237|   -7.044860|    0.824114|    0.012016|
|         153|   -4.616753|   -7.045757|    0.824107|    0.012013|
|         154|   -4.622033|   -7.046632|    0.824099|    0.012011|
|         155|   -4.626765|   -7.047435|    0.824090|    0.012008|
|         156|   -4.630746|   -7.048109|    0.824081|    0.012006|
|         157|   -4.633905|   -7.048602|    0.824072|    0.012003|
|         158|   -4.636287|   -7.048874|    0.824062|    0.012000|
|         159|   -4.638027|   -7.048886|    0.824052|    0.011997|
|         160|   -4.639292|   -7.048623|    0.824041|    0.011995|
|         161|   -4.640249|   -7.048082|    0.824030|    0.011992|
|         162|   -4.641031|   -7.047275|    0.824019|    0.011989|
|         163|   -4.641731|   -7.046228|    0.824008|    0.011986|
|         164|   -4.642401|   -7.044978|    0.823997|    0.011983|
|         165|   -4.643066|   -7.043567|    0.823986|    0.011981|
|         166|   -4.643732|   -7.042048|    0.823975|    0.011978|
|         167|   -4.644398|   -7.040471|    0.823964|    0.011975|
|         168|   -4.645065|   -7.038882|    0.823953|    0.011973|
|         169|   -4.645737|   -7.037322|    0.823943|    0.011970|
|         170|   -4.646419|   -7.035826|    0.823933|    0.011968|
|         171|   -4.647118|   -7.034419|    0.823924|    0.011966|
|         172|   -4.647838|   -7.033116|    0.823915|    0.011964|
|         173|   -4.648580|   -7.031922|    0.823907|    0.011962|
|         174|   -4.649341|   -7.030834|    0.823899|    0.011960|
|         175|   -4.650113|   -7.029841|    0.823892|    0.011958|
|         176|   -4.650887|   -7.028926|    0.823886|    0.011956|
|         177|   -4.651654|   -7.028069|    0.823881|    0.011955|
|         178|   -4.652404|   -7.027249|    0.823876|    0.011954|
|         179|   -4.653130|   -7.026446|    0.823873|    0.011952|
|         180|   -4.653827|   -7.025643|    0.823870|    0.011951|
|         181|   -4.654491|   -7.024828|    0.823868|    0.011950|
|         182|   -4.655122|   -7.023996|    0.823867|    0.011950|
|         183|   -4.655718|   -7.023150|    0.823867|    0.011949|
|         184|   -4.656281|   -7.022298|    0.823868|    0.011948|
|         185|   -4.656809|   -7.021456|    0.823869|    0.011948|
|         186|   -4.657302|   -7.020643|    0.823872|    0.011948|
|         187|   -4.657757|   -7.019886|    0.823875|    0.011947|
|         188|   -4.658170|   -7.019213|    0.823878|    0.011947|
|         189|   -4.658534|   -7.018657|    0.823883|    0.011947|
|         190|   -4.658844|   -7.018248|    0.823887|    0.011947|
|         191|   -4.659089|   -7.018017|    0.823893|    0.011947|
|         192|   -4.659261|   -7.017989|    0.823899|    0.011948|
|         193|   -4.659349|   -7.018190|    0.823905|    0.011948|
|         194|   -4.659345|   -7.018638|    0.823912|    0.011949|
|         195|   -4.659240|   -7.019345|    0.823919|    0.011949|
|         196|   -4.659030|   -7.020317|    0.823927|    0.011950|
|         197|   -4.658713|   -7.021560|    0.823934|    0.011951|
|         198|   -4.658291|   -7.023069|    0.823942|    0.011951|
|         199|   -4.657774|   -7.024838|    0.823950|    0.011952|
|         200|   -4.657176|   -7.026854|    0.823958|    0.011953|
|         201|   -4.656519|   -7.029101|    0.823966|    0.011957|
+-----------------------------------------------------------------------+
|Fixed CL Mode                           |Value                         |
+-----------------------------------------------------------------------+
|Current CL                              |0.823966                      |
|Target CL                               |0.824                         |
|Previous AOA                            |2.77747                       |
|Changed AoA by                          |0.000208763                   |
+-----------------------------------------------------------------------+
+----------------------------------------------------------------+
|  Inner_Iter|    rms[Rho]|     rms[nu]|          CL|          CD|
+----------------------------------------------------------------+
|         202|   -3.867713|   -7.028997|    0.823975|    0.011958|
|         203|   -4.229608|   -7.033175|    0.823983|    0.011959|
|         204|   -4.429699|   -7.036460|    0.823991|    0.011961|
|         205|   -4.482913|   -7.039634|    0.823999|    0.011962|
|         206|   -4.510521|   -7.042812|    0.824007|    0.011963|
|         207|   -4.539954|   -7.046025|    0.824014|    0.011965|
|         208|   -4.569164|   -7.049285|    0.824022|    0.011966|
|         209|   -4.591992|   -7.052605|    0.824029|    0.011968|
|         210|   -4.606295|   -7.055992|    0.824036|    0.011969|
|         211|   -4.614357|   -7.059452|    0.824043|    0.011971|
|         212|   -4.619143|   -7.062990|    0.824049|    0.011972|
|         213|   -4.622384|   -7.066612|    0.824055|    0.011974|
|         214|   -4.625004|   -7.070327|    0.824061|    0.011976|
|         215|   -4.627790|   -7.074147|    0.824066|    0.011978|
|         216|   -4.631466|   -7.078084|    0.824070|    0.011979|
|         217|   -4.636449|   -7.082153|    0.824075|    0.011981|
|         218|   -4.642708|   -7.086371|    0.824078|    0.011983|
|         219|   -4.649873|   -7.090760|    0.824082|    0.011985|
|         220|   -4.657485|   -7.095343|    0.824084|    0.011987|
|         221|   -4.665238|   -7.100145|    0.824086|    0.011989|
|         222|   -4.673064|   -7.105189|    0.824088|    0.011990|
|         223|   -4.681064|   -7.110500|    0.824089|    0.011992|
|         224|   -4.689372|   -7.116100|    0.824090|    0.011994|
|         225|   -4.698055|   -7.122011|    0.824090|    0.011996|
|         226|   -4.707078|   -7.128256|    0.824090|    0.011997|
|         227|   -4.716334|   -7.134853|    0.824089|    0.011999|
|         228|   -4.725673|   -7.141823|    0.824087|    0.012001|
|         229|   -4.734930|   -7.149183|    0.824085|    0.012002|
|         230|   -4.743940|   -7.156948|    0.824083|    0.012004|
|         231|   -4.752546|   -7.165130|    0.824080|    0.012005|
|         232|   -4.760618|   -7.173738|    0.824077|    0.012007|
|         233|   -4.768071|   -7.182781|    0.824074|    0.012008|
|         234|   -4.774859|   -7.192259|    0.824070|    0.012010|
|         235|   -4.780977|   -7.202172|    0.824066|    0.012011|
|         236|   -4.786439|   -7.212515|    0.824061|    0.012012|
|         237|   -4.791263|   -7.223277|    0.824057|    0.012013|
|         238|   -4.795462|   -7.234443|    0.824052|    0.012014|
|         239|   -4.799032|   -7.245993|    0.824047|    0.012015|
|         240|   -4.801966|   -7.257900|    0.824042|    0.012016|
|         241|   -4.804255|   -7.270132|    0.824037|    0.012017|
|         242|   -4.805903|   -7.282651|    0.824031|    0.012017|
|         243|   -4.806939|   -7.295416|    0.824026|    0.012018|
|         244|   -4.807425|   -7.308377|    0.824021|    0.012019|
|         245|   -4.807453|   -7.321485|    0.824016|    0.012019|
|         246|   -4.807141|   -7.334688|    0.824011|    0.012019|
|         247|   -4.806615|   -7.347934|    0.824006|    0.012020|
|         248|   -4.805999|   -7.361172|    0.824001|    0.012020|
|         249|   -4.805400|   -7.374353|    0.823997|    0.012020|
|         250|   -4.804907|   -7.387434|    0.823992|    0.012020|
|         251|   -4.804587|   -7.400376|    0.823988|    0.012020|
|         252|   -4.804486|   -7.413146|    0.823984|    0.012020|
|         253|   -4.804641|   -7.425721|    0.823980|    0.012020|
|         254|   -4.805080|   -7.438086|    0.823976|    0.012020|
|         255|   -4.805827|   -7.450235|    0.823973|    0.012020|
|         256|   -4.806908|   -7.462169|    0.823970|    0.012020|
|         257|   -4.808349|   -7.473891|    0.823967|    0.012020|
|         258|   -4.810176|   -7.485410|    0.823964|    0.012019|
|         259|   -4.812413|   -7.496735|    0.823962|    0.012019|
|         260|   -4.815082|   -7.507876|    0.823959|    0.012018|
|         261|   -4.818199|   -7.518838|    0.823957|    0.012018|
|         262|   -4.821775|   -7.529622|    0.823956|    0.012017|
|         263|   -4.825813|   -7.540220|    0.823954|    0.012017|
|         264|   -4.830312|   -7.550618|    0.823952|    0.012016|
|         265|   -4.835264|   -7.560792|    0.823951|    0.012016|
|         266|   -4.840654|   -7.570710|    0.823950|    0.012015|
|         267|   -4.846465|   -7.580337|    0.823949|    0.012014|
|         268|   -4.852672|   -7.589633|    0.823948|    0.012013|
|         269|   -4.859248|   -7.598557|    0.823947|    0.012013|
|         270|   -4.866160|   -7.607070|    0.823946|    0.012012|
|         271|   -4.873368|   -7.615131|    0.823945|    0.012011|
|         272|   -4.880829|   -7.622712|    0.823945|    0.012010|
|         273|   -4.888493|   -7.629787|    0.823944|    0.012009|
|         274|   -4.896304|   -7.636343|    0.823943|    0.012008|
|         275|   -4.904200|   -7.642375|    0.823943|    0.012007|
|         276|   -4.912116|   -7.647890|    0.823942|    0.012006|
|         277|   -4.919980|   -7.652901|    0.823941|    0.012005|
|         278|   -4.927718|   -7.657431|    0.823940|    0.012004|
|         279|   -4.935254|   -7.661502|    0.823940|    0.012003|
|         280|   -4.942510|   -7.665141|    0.823939|    0.012002|
|         281|   -4.949412|   -7.668372|    0.823938|    0.012001|
|         282|   -4.955890|   -7.671214|    0.823938|    0.012000|
|         283|   -4.961878|   -7.673682|    0.823937|    0.011999|
|         284|   -4.967321|   -7.675785|    0.823936|    0.011997|
|         285|   -4.972175|   -7.677522|    0.823935|    0.011996|
|         286|   -4.976408|   -7.678890|    0.823935|    0.011995|
|         287|   -4.980003|   -7.679880|    0.823934|    0.011994|
|         288|   -4.982957|   -7.680480|    0.823933|    0.011993|
|         289|   -4.985283|   -7.680681|    0.823933|    0.011992|
|         290|   -4.987007|   -7.680477|    0.823932|    0.011991|
|         291|   -4.988165|   -7.679866|    0.823931|    0.011990|
|         292|   -4.988806|   -7.678857|    0.823931|    0.011989|
|         293|   -4.988984|   -7.677465|    0.823931|    0.011988|
|         294|   -4.988761|   -7.675719|    0.823930|    0.011987|
|         295|   -4.988198|   -7.673654|    0.823930|    0.011986|
|         296|   -4.987359|   -7.671312|    0.823930|    0.011985|
|         297|   -4.986305|   -7.668743|    0.823930|    0.011985|
|         298|   -4.985094|   -7.665996|    0.823930|    0.011984|
|         299|   -4.983780|   -7.663121|    0.823930|    0.011983|
|         300|   -4.982410|   -7.660167|    0.823931|    0.011983|
|         301|   -4.981028|   -7.657174|    0.823931|    0.011987|
+-----------------------------------------------------------------------+
|Fixed CL Mode                           |Value                         |
+-----------------------------------------------------------------------+
|Current CL                              |0.823931                      |
|Target CL                               |0.824                         |
|Previous AOA                            |2.77768                       |
|Changed AoA by                          |0.000346521                   |
+-----------------------------------------------------------------------+
+----------------------------------------------------------------+
|  Inner_Iter|    rms[Rho]|     rms[nu]|          CL|          CD|
+----------------------------------------------------------------+
|         302|   -3.653243|   -7.550238|    0.823932|    0.011986|
|         303|   -4.036765|   -7.596722|    0.823932|    0.011986|
|         304|   -4.279458|   -7.610686|    0.823933|    0.011986|
|         305|   -4.357038|   -7.617060|    0.823934|    0.011985|
|         306|   -4.407943|   -7.620346|    0.823935|    0.011985|
|         307|   -4.472170|   -7.621743|    0.823936|    0.011985|
|         308|   -4.548651|   -7.621766|    0.823937|    0.011985|
|         309|   -4.623545|   -7.620777|    0.823938|    0.011985|
|         310|   -4.682174|   -7.619025|    0.823939|    0.011985|
|         311|   -4.720485|   -7.616661|    0.823940|    0.011985|
|         312|   -4.743220|   -7.613811|    0.823942|    0.011985|
|         313|   -4.755410|   -7.610660|    0.823943|    0.011985|
|         314|   -4.760657|   -7.607407|    0.823944|    0.011985|
|         315|   -4.762873|   -7.604181|    0.823946|    0.011985|
|         316|   -4.766024|   -7.601016|    0.823947|    0.011986|
|         317|   -4.772629|   -7.597899|    0.823948|    0.011986|
|         318|   -4.783051|   -7.594811|    0.823950|    0.011987|
|         319|   -4.795914|   -7.591764|    0.823951|    0.011987|
|         320|   -4.809204|   -7.588781|    0.823953|    0.011987|
|         321|   -4.821441|   -7.585891|    0.823954|    0.011988|
|         322|   -4.832285|   -7.583103|    0.823955|    0.011989|
|         323|   -4.842301|   -7.580419|    0.823957|    0.011989|
|         324|   -4.852255|   -7.577840|    0.823958|    0.011990|
|         325|   -4.862554|   -7.575375|    0.823959|    0.011991|
|         326|   -4.873124|   -7.573042|    0.823961|    0.011991|
|         327|   -4.883578|   -7.570872|    0.823962|    0.011992|
|         328|   -4.893465|   -7.568905|    0.823963|    0.011993|
|         329|   -4.902434|   -7.567170|    0.823964|    0.011994|
|         330|   -4.910296|   -7.565702|    0.823966|    0.011994|
|         331|   -4.917049|   -7.564531|    0.823967|    0.011995|
|         332|   -4.922883|   -7.563675|    0.823968|    0.011996|
|         333|   -4.928152|   -7.563149|    0.823969|    0.011997|
|         334|   -4.933314|   -7.562958|    0.823970|    0.011997|
|         335|   -4.938829|   -7.563092|    0.823971|    0.011998|
|         336|   -4.945065|   -7.563537|    0.823972|    0.011999|
|         337|   -4.952229|   -7.564268|    0.823973|    0.012000|
|         338|   -4.960344|   -7.565252|    0.823974|    0.012001|
|         339|   -4.969256|   -7.566458|    0.823975|    0.012001|
|         340|   -4.978667|   -7.567849|    0.823976|    0.012002|
|         341|   -4.988193|   -7.569392|    0.823977|    0.012003|
|         342|   -4.997435|   -7.571059|    0.823978|    0.012003|
|         343|   -5.006068|   -7.572824|    0.823978|    0.012004|
|         344|   -5.013914|   -7.574664|    0.823979|    0.012005|
|         345|   -5.020978|   -7.576565|    0.823980|    0.012005|
|         346|   -5.027425|   -7.578512|    0.823980|    0.012006|
|         347|   -5.033516|   -7.580497|    0.823981|    0.012007|
|         348|   -5.039522|   -7.582513|    0.823982|    0.012007|
|         349|   -5.045650|   -7.584552|    0.823982|    0.012008|
|         350|   -5.051993|   -7.586609|    0.823983|    0.012008|
|         351|   -5.058518|   -7.588687|    0.823983|    0.012008|
|         352|   -5.065089|   -7.590790|    0.823984|    0.012009|
|         353|   -5.071499|   -7.592928|    0.823984|    0.012009|
|         354|   -5.077524|   -7.595107|    0.823985|    0.012010|
|         355|   -5.082966|   -7.597338|    0.823986|    0.012010|
|         356|   -5.087684|   -7.599635|    0.823986|    0.012010|
|         357|   -5.091612|   -7.602001|    0.823987|    0.012010|
|         358|   -5.094755|   -7.604446|    0.823987|    0.012011|
|         359|   -5.097167|   -7.606978|    0.823988|    0.012011|
|         360|   -5.098933|   -7.609606|    0.823988|    0.012011|
|         361|   -5.100142|   -7.612332|    0.823989|    0.012011|
|         362|   -5.100876|   -7.615159|    0.823989|    0.012011|
|         363|   -5.101203|   -7.618089|    0.823990|    0.012011|
|         364|   -5.101175|   -7.621121|    0.823990|    0.012011|
|         365|   -5.100837|   -7.624252|    0.823991|    0.012011|
|         366|   -5.100230|   -7.627479|    0.823991|    0.012011|
|         367|   -5.099397|   -7.630796|    0.823991|    0.012011|
|         368|   -5.098386|   -7.634202|    0.823992|    0.012011|
|         369|   -5.097251|   -7.637690|    0.823992|    0.012011|
|         370|   -5.096048|   -7.641260|    0.823993|    0.012011|
|         371|   -5.094837|   -7.644907|    0.823993|    0.012011|
|         372|   -5.093673|   -7.648628|    0.823993|    0.012011|
|         373|   -5.092612|   -7.652421|    0.823993|    0.012010|
|         374|   -5.091703|   -7.656286|    0.823994|    0.012010|
|         375|   -5.090990|   -7.660215|    0.823994|    0.012010|
|         376|   -5.090515|   -7.664199|    0.823993|    0.012010|
|         377|   -5.090313|   -7.668227|    0.823993|    0.012010|
|         378|   -5.090416|   -7.672284|    0.823993|    0.012009|
|         379|   -5.090851|   -7.676356|    0.823993|    0.012009|
|         380|   -5.091644|   -7.680424|    0.823992|    0.012009|
|         381|   -5.092814|   -7.684466|    0.823992|    0.012008|
|         382|   -5.094378|   -7.688456|    0.823991|    0.012008|
|         383|   -5.096348|   -7.692368|    0.823990|    0.012008|
|         384|   -5.098734|   -7.696173|    0.823989|    0.012008|
|         385|   -5.101541|   -7.699846|    0.823988|    0.012007|
|         386|   -5.104770|   -7.703362|    0.823987|    0.012007|
|         387|   -5.108417|   -7.706698|    0.823986|    0.012007|
|         388|   -5.112478|   -7.709838|    0.823985|    0.012006|
|         389|   -5.116940|   -7.712770|    0.823984|    0.012006|
|         390|   -5.121792|   -7.715493|    0.823983|    0.012006|
|         391|   -5.127013|   -7.718010|    0.823981|    0.012005|
|         392|   -5.132584|   -7.720334|    0.823980|    0.012005|
|         393|   -5.138478|   -7.722485|    0.823978|    0.012005|
|         394|   -5.144668|   -7.724492|    0.823977|    0.012005|
|         395|   -5.151119|   -7.726387|    0.823975|    0.012004|
|         396|   -5.157795|   -7.728207|    0.823974|    0.012004|
|         397|   -5.164656|   -7.729991|    0.823973|    0.012004|
|         398|   -5.171659|   -7.731777|    0.823971|    0.012004|
|         399|   -5.178757|   -7.733602|    0.823970|    0.012004|
|         400|   -5.185899|   -7.735500|    0.823968|    0.012003|
|         401|   -5.193036|   -7.737499|    0.823967|    0.012006|
+-----------------------------------------------------------------------+
|Fixed CL Mode                           |Value                         |
+-----------------------------------------------------------------------+
|Current CL                              |0.823967                      |
|Target CL                               |0.824                         |
|Previous AOA                            |2.77802                       |
|Changed AoA by                          |0.00015862                    |
+-----------------------------------------------------------------------+
+----------------------------------------------------------------+
|  Inner_Iter|    rms[Rho]|     rms[nu]|          CL|          CD|
+----------------------------------------------------------------+
|         402|   -3.992191|   -7.702411|    0.823966|    0.012005|
|         403|   -4.372404|   -7.723289|    0.823964|    0.012005|
|         404|   -4.607352|   -7.731128|    0.823963|    0.012005|
|         405|   -4.681995|   -7.736553|    0.823962|    0.012005|
|         406|   -4.732294|   -7.741306|    0.823961|    0.012005|
|         407|   -4.795442|   -7.745770|    0.823960|    0.012005|
|         408|   -4.869983|   -7.750033|    0.823959|    0.012005|
|         409|   -4.942773|   -7.754122|    0.823958|    0.012005|
|         410|   -5.000330|   -7.758052|    0.823958|    0.012005|
|         411|   -5.039004|   -7.761820|    0.823957|    0.012005|
|         412|   -5.062960|   -7.765436|    0.823956|    0.012004|
|         413|   -5.076594|   -7.768962|    0.823956|    0.012004|
|         414|   -5.083107|   -7.772485|    0.823956|    0.012004|
|         415|   -5.086119|   -7.776085|    0.823955|    0.012004|
|         416|   -5.089396|   -7.779805|    0.823955|    0.012004|
|         417|   -5.095383|   -7.783683|    0.823955|    0.012004|
|         418|   -5.104466|   -7.787750|    0.823955|    0.012005|
|         419|   -5.115382|   -7.792048|    0.823955|    0.012005|
|         420|   -5.126280|   -7.796627|    0.823956|    0.012005|
|         421|   -5.135827|   -7.801523|    0.823956|    0.012005|
|         422|   -5.143749|   -7.806755|    0.823956|    0.012005|
|         423|   -5.150570|   -7.812316|    0.823957|    0.012005|
|         424|   -5.156971|   -7.818179|    0.823958|    0.012005|
|         425|   -5.163304|   -7.824309|    0.823959|    0.012005|
|         426|   -5.169513|   -7.830666|    0.823959|    0.012005|
|         427|   -5.175298|   -7.837198|    0.823960|    0.012005|
|         428|   -5.180334|   -7.843847|    0.823961|    0.012005|
|         429|   -5.184392|   -7.850554|    0.823963|    0.012005|
|         430|   -5.187375|   -7.857250|    0.823964|    0.012006|
|         431|   -5.189324|   -7.863860|    0.823965|    0.012006|
|         432|   -5.190406|   -7.870308|    0.823967|    0.012006|
|         433|   -5.190898|   -7.876508|    0.823968|    0.012006|
|         434|   -5.191139|   -7.882378|    0.823969|    0.012006|
|         435|   -5.191454|   -7.887829|    0.823971|    0.012006|
|         436|   -5.192099|   -7.892778|    0.823973|    0.012007|
|         437|   -5.193214|   -7.897151|    0.823974|    0.012007|
|         438|   -5.194823|   -7.900886|    0.823976|    0.012007|
|         439|   -5.196845|   -7.903941|    0.823978|    0.012007|
|         440|   -5.199126|   -7.906292|    0.823979|    0.012007|
|         441|   -5.201484|   -7.907942|    0.823981|    0.012007|
|         442|   -5.203753|   -7.908914|    0.823983|    0.012007|
|         443|   -5.205823|   -7.909264|    0.823984|    0.012008|
|         444|   -5.207672|   -7.909064|    0.823986|    0.012008|
|         445|   -5.209367|   -7.908404|    0.823988|    0.012008|
|         446|   -5.211044|   -7.907389|    0.823989|    0.012008|
|         447|   -5.212871|   -7.906125|    0.823991|    0.012008|
|         448|   -5.215006|   -7.904719|    0.823992|    0.012008|
|         449|   -5.217568|   -7.903273|    0.823994|    0.012008|
|         450|   -5.220617|   -7.901875|    0.823995|    0.012008|
|         451|   -5.224159|   -7.900605|    0.823997|    0.012008|
|         452|   -5.228149|   -7.899522|    0.823998|    0.012009|
|         453|   -5.232518|   -7.898671|    0.824000|    0.012009|
|         454|   -5.237190|   -7.898082|    0.824001|    0.012009|
|         455|   -5.242097|   -7.897766|    0.824002|    0.012009|
|         456|   -5.247193|   -7.897713|    0.824003|    0.012009|
|         457|   -5.252453|   -7.897898|    0.824005|    0.012009|
|         458|   -5.257876|   -7.898279|    0.824006|    0.012008|
|         459|   -5.263473|   -7.898804|    0.824007|    0.012008|
|         460|   -5.269256|   -7.899409|    0.824008|    0.012008|
|         461|   -5.275237|   -7.900022|    0.824009|    0.012008|
|         462|   -5.281414|   -7.900573|    0.824010|    0.012008|
|         463|   -5.287773|   -7.900988|    0.824011|    0.012008|
|         464|   -5.294286|   -7.901205|    0.824012|    0.012008|
|         465|   -5.300914|   -7.901167|    0.824013|    0.012008|
|         466|   -5.307609|   -7.900835|    0.824014|    0.012008|
|         467|   -5.314315|   -7.900187|    0.824015|    0.012007|
|         468|   -5.320976|   -7.899221|    0.824016|    0.012007|
|         469|   -5.327530|   -7.897953|    0.824017|    0.012007|
|         470|   -5.333918|   -7.896418|    0.824018|    0.012007|
|         471|   -5.340078|   -7.894668|    0.824018|    0.012006|
|         472|   -5.345948|   -7.892766|    0.824019|    0.012006|
|         473|   -5.351471|   -7.890783|    0.824020|    0.012006|
|         474|   -5.356587|   -7.888795|    0.824020|    0.012006|
|         475|   -5.361245|   -7.886876|    0.824021|    0.012005|
|         476|   -5.365399|   -7.885099|    0.824022|    0.012005|
|         477|   -5.369012|   -7.883524|    0.824022|    0.012005|
|         478|   -5.372057|   -7.882209|    0.824022|    0.012005|
|         479|   -5.374519|   -7.881192|    0.824023|    0.012004|
|         480|   -5.376398|   -7.880502|    0.824023|    0.012004|
|         481|   -5.377704|   -7.880153|    0.824023|    0.012004|
|         482|   -5.378462|   -7.880143|    0.824023|    0.012003|
|         483|   -5.378707|   -7.880458|    0.824023|    0.012003|
|         484|   -5.378484|   -7.881068|    0.824023|    0.012003|
|         485|   -5.377845|   -7.881931|    0.824023|    0.012002|
|         486|   -5.376848|   -7.882994|    0.824023|    0.012002|
|         487|   -5.375554|   -7.884194|    0.824022|    0.012002|
|         488|   -5.374028|   -7.885463|    0.824022|    0.012002|
|         489|   -5.372333|   -7.886726|    0.824021|    0.012001|
|         490|   -5.370531|   -7.887907|    0.824021|    0.012001|
|         491|   -5.368683|   -7.888933|    0.824020|    0.012001|
|         492|   -5.366845|   -7.889734|    0.824019|    0.012001|
|         493|   -5.365071|   -7.890248|    0.824019|    0.012000|
|         494|   -5.363409|   -7.890419|    0.824018|    0.012000|
|         495|   -5.361903|   -7.890207|    0.824017|    0.012000|
|         496|   -5.360593|   -7.889579|    0.824016|    0.012000|
|         497|   -5.359514|   -7.888517|    0.824015|    0.011999|
|         498|   -5.358697|   -7.887014|    0.824014|    0.011999|
|         499|   -5.358169|   -7.885072|    0.824013|    0.011999|
|         500|   -5.357952|   -7.882703|    0.824012|    0.011999|
|         501|   -5.358065|   -7.879927|    0.824011|    0.011998|
+-----------------------------------------------------------------------+
|Fixed CL Mode                           |Value                         |
+-----------------------------------------------------------------------+
|Current CL                              |0.824011                      |
|Target CL                               |0.824                         |
|Previous AOA                            |2.77818                       |
|Changed AoA by                          |-6.08319e-05                  |
+-----------------------------------------------------------------------+
+----------------------------------------------------------------+
|  Inner_Iter|    rms[Rho]|     rms[nu]|          CL|          CD|
+----------------------------------------------------------------+
|         502|   -4.406889|   -7.865445|    0.824010|    0.011998|
|         503|   -4.782827|   -7.867998|    0.824009|    0.011998|
|         504|   -5.006190|   -7.866045|    0.824008|    0.011998|
|         505|   -5.069109|   -7.862896|    0.824007|    0.011998|
|         506|   -5.106556|   -7.859096|    0.824006|    0.011998|
|         507|   -5.152071|   -7.854833|    0.824005|    0.011998|
|         508|   -5.202443|   -7.850229|    0.824004|    0.011998|
|         509|   -5.246798|   -7.845389|    0.824003|    0.011998|
|         510|   -5.278172|   -7.840397|    0.824002|    0.011998|
|         511|   -5.297765|   -7.835319|    0.824002|    0.011998|
|         512|   -5.310023|   -7.830211|    0.824001|    0.011998|
|         513|   -5.318071|   -7.825130|    0.824000|    0.011998|
|         514|   -5.323675|   -7.820132|    0.824000|    0.011998|
|         515|   -5.328420|   -7.815267|    0.823999|    0.011998|
|         516|   -5.333857|   -7.810578|    0.823998|    0.011999|
|         517|   -5.340978|   -7.806102|    0.823998|    0.011999|
|         518|   -5.349869|   -7.801876|    0.823998|    0.011999|
|         519|   -5.359875|   -7.797937|    0.823997|    0.011999|
|         520|   -5.370102|   -7.794319|    0.823997|    0.011999|
|         521|   -5.379924|   -7.791055|    0.823997|    0.012000|
|         522|   -5.389204|   -7.788171|    0.823997|    0.012000|
|         523|   -5.398167|   -7.785689|    0.823997|    0.012000|
|         524|   -5.407100|   -7.783624|    0.823997|    0.012000|
|         525|   -5.416137|   -7.781986|    0.823997|    0.012001|
|         526|   -5.425204|   -7.780777|    0.823997|    0.012001|
|         527|   -5.434093|   -7.779997|    0.823998|    0.012001|
|         528|   -5.442564|   -7.779639|    0.823998|    0.012002|
|         529|   -5.450415|   -7.779685|    0.823998|    0.012002|
|         530|   -5.457511|   -7.780116|    0.823999|    0.012002|
|         531|   -5.463795|   -7.780903|    0.823999|    0.012003|
|         532|   -5.469297|   -7.782010|    0.824000|    0.012003|
|         533|   -5.474128|   -7.783397|    0.824000|    0.012003|
|         534|   -5.478449|   -7.785020|    0.824001|    0.012004|
|         535|   -5.482437|   -7.786830|    0.824001|    0.012004|
|         536|   -5.486233|   -7.788776|    0.824002|    0.012005|
|         537|   -5.489917|   -7.790807|    0.824002|    0.012005|
|         538|   -5.493492|   -7.792874|    0.824003|    0.012005|
|         539|   -5.496892|   -7.794929|    0.824003|    0.012006|
|         540|   -5.500007|   -7.796932|    0.824004|    0.012006|
|         541|   -5.502704|   -7.798847|    0.824004|    0.012006|
|         542|   -5.504869|   -7.800649|    0.824005|    0.012007|
|         543|   -5.506432|   -7.802321|    0.824005|    0.012007|
|         544|   -5.507387|   -7.803855|    0.824006|    0.012007|
|         545|   -5.507795|   -7.805255|    0.824006|    0.012008|
|         546|   -5.507767|   -7.806533|    0.824006|    0.012008|
|         547|   -5.507437|   -7.807709|    0.824007|    0.012008|
|         548|   -5.506939|   -7.808813|    0.824007|    0.012008|
|         549|   -5.506380|   -7.809878|    0.824007|    0.012009|
|         550|   -5.505835|   -7.810944|    0.824007|    0.012009|
|         551|   -5.505341|   -7.812052|    0.824007|    0.012009|
|         552|   -5.504913|   -7.813245|    0.824007|    0.012009|
|         553|   -5.504551|   -7.814566|    0.824007|    0.012009|
|         554|   -5.504253|   -7.816056|    0.824007|    0.012009|
|         555|   -5.504024|   -7.817752|    0.824006|    0.012010|
|         556|   -5.503884|   -7.819689|    0.824006|    0.012010|
|         557|   -5.503863|   -7.821896|    0.824006|    0.012010|
|         558|   -5.504001|   -7.824398|    0.824005|    0.012010|
|         559|   -5.504343|   -7.827214|    0.824005|    0.012010|
|         560|   -5.504933|   -7.830355|    0.824004|    0.012010|
|         561|   -5.505812|   -7.833830|    0.824004|    0.012010|
|         562|   -5.507014|   -7.837638|    0.824003|    0.012010|
|         563|   -5.508567|   -7.841774|    0.824002|    0.012010|
|         564|   -5.510488|   -7.846228|    0.824002|    0.012010|
|         565|   -5.512795|   -7.850983|    0.824001|    0.012009|
|         566|   -5.515496|   -7.856014|    0.824000|    0.012009|
|         567|   -5.518599|   -7.861293|    0.824000|    0.012009|
|         568|   -5.522109|   -7.866788|    0.823999|    0.012009|
|         569|   -5.526029|   -7.872460|    0.823998|    0.012009|
|         570|   -5.530360|   -7.878268|    0.823997|    0.012009|
|         571|   -5.535100|   -7.884172|    0.823997|    0.012008|
|         572|   -5.540245|   -7.890126|    0.823996|    0.012008|
|         573|   -5.545785|   -7.896090|    0.823995|    0.012008|
|         574|   -5.551709|   -7.902022|    0.823995|    0.012007|
|         575|   -5.557999|   -7.907884|    0.823994|    0.012007|
|         576|   -5.564634|   -7.913639|    0.823993|    0.012007|
|         577|   -5.571587|   -7.919256|    0.823993|    0.012007|
|         578|   -5.578825|   -7.924710|    0.823992|    0.012006|
|         579|   -5.586309|   -7.929980|    0.823992|    0.012006|
|         580|   -5.593996|   -7.935051|    0.823991|    0.012005|
|         581|   -5.601836|   -7.939916|    0.823991|    0.012005|
|         582|   -5.609771|   -7.944572|    0.823991|    0.012005|
|         583|   -5.617739|   -7.949024|    0.823990|    0.012004|
|         584|   -5.625674|   -7.953280|    0.823990|    0.012004|
|         585|   -5.633501|   -7.957355|    0.823990|    0.012004|
|         586|   -5.641146|   -7.961266|    0.823990|    0.012003|
|         587|   -5.648531|   -7.965034|    0.823990|    0.012003|
|         588|   -5.655578|   -7.968679|    0.823990|    0.012002|
|         589|   -5.662213|   -7.972225|    0.823990|    0.012002|
|         590|   -5.668366|   -7.975693|    0.823990|    0.012002|
|         591|   -5.673975|   -7.979104|    0.823990|    0.012001|
|         592|   -5.678990|   -7.982476|    0.823990|    0.012001|
|         593|   -5.683372|   -7.985828|    0.823990|    0.012000|
|         594|   -5.687098|   -7.989171|    0.823991|    0.012000|
|         595|   -5.690160|   -7.992517|    0.823991|    0.012000|
|         596|   -5.692568|   -7.995872|    0.823991|    0.011999|
|         597|   -5.694345|   -7.999242|    0.823991|    0.011999|
|         598|   -5.695531|   -8.002625|    0.823992|    0.011998|
|         599|   -5.696179|   -8.006021|    0.823992|    0.011998|
|         600|   -5.696353|   -8.009425|    0.823992|    0.011998|
|         601|   -5.696122|   -8.012828|    0.823993|    0.011998|
+-----------------------------------------------------------------------+
|Fixed CL Mode                           |Value                         |
+-----------------------------------------------------------------------+
|Current CL                              |0.823993                      |
|Target CL                               |0.824                         |
|Previous AOA                            |2.77812                       |
|Changed AoA by                          |3.84064e-05                   |
+-----------------------------------------------------------------------+
+----------------------------------------------------------------+
|  Inner_Iter|    rms[Rho]|     rms[nu]|          CL|          CD|
+----------------------------------------------------------------+
|         602|   -4.607464|   -8.007289|    0.823993|    0.011998|
|         603|   -4.984047|   -8.014828|    0.823993|    0.011997|
|         604|   -5.209548|   -8.019268|    0.823994|    0.011997|
|         605|   -5.278298|   -8.023148|    0.823994|    0.011997|
|         606|   -5.324215|   -8.026851|    0.823995|    0.011996|
|         607|   -5.380742|   -8.030438|    0.823995|    0.011996|
|         608|   -5.444768|   -8.033901|    0.823995|    0.011996|
|         609|   -5.503608|   -8.037217|    0.823996|    0.011996|
|         610|   -5.546851|   -8.040360|    0.823996|    0.011996|
|         611|   -5.573794|   -8.043300|    0.823997|    0.011995|
|         612|   -5.589267|   -8.046024|    0.823997|    0.011995|
|         613|   -5.597352|   -8.048537|    0.823997|    0.011995|
|         614|   -5.600763|   -8.050852|    0.823998|    0.011995|
|         615|   -5.602184|   -8.052980|    0.823998|    0.011995|
|         616|   -5.604206|   -8.054929|    0.823999|    0.011995|
|         617|   -5.608456|   -8.056702|    0.823999|    0.011995|
|         618|   -5.615165|   -8.058303|    0.823999|    0.011995|
|         619|   -5.623471|   -8.059739|    0.824000|    0.011995|
|         620|   -5.632156|   -8.061016|    0.824000|    0.011995|
|         621|   -5.640350|   -8.062140|    0.824001|    0.011995|
|         622|   -5.647853|   -8.063113|    0.824001|    0.011995|
|         623|   -5.654976|   -8.063935|    0.824001|    0.011995|
|         624|   -5.662163|   -8.064605|    0.824002|    0.011995|
|         625|   -5.669700|   -8.065122|    0.824002|    0.011995|
|         626|   -5.677650|   -8.065487|    0.824002|    0.011995|
|         627|   -5.685930|   -8.065702|    0.824002|    0.011995|
|         628|   -5.694411|   -8.065766|    0.824003|    0.011995|
|         629|   -5.702980|   -8.065685|    0.824003|    0.011996|
|         630|   -5.711553|   -8.065465|    0.824003|    0.011996|
|         631|   -5.720075|   -8.065106|    0.824003|    0.011996|
|         632|   -5.728542|   -8.064613|    0.824004|    0.011996|
|         633|   -5.737008|   -8.063988|    0.824004|    0.011996|
|         634|   -5.745584|   -8.063234|    0.824004|    0.011997|
|         635|   -5.754407|   -8.062362|    0.824004|    0.011997|
|         636|   -5.763601|   -8.061390|    0.824004|    0.011997|
|         637|   -5.773241|   -8.060320|    0.824004|    0.011998|
|         638|   -5.783326|   -8.059161|    0.824005|    0.011998|
|         639|   -5.793772|   -8.057923|    0.824005|    0.011998|
|         640|   -5.804417|   -8.056622|    0.824005|    0.011998|
|         641|   -5.815042|   -8.055275|    0.824005|    0.011999|
|         642|   -5.825409|   -8.053900|    0.824005|    0.011999|
|         643|   -5.835305|   -8.052514|    0.824005|    0.012000|
|         644|   -5.844584|   -8.051139|    0.824005|    0.012000|
|         645|   -5.853194|   -8.049796|    0.824005|    0.012000|
|         646|   -5.861178|   -8.048507|    0.824005|    0.012001|
|         647|   -5.868641|   -8.047293|    0.824005|    0.012001|
|         648|   -5.875707|   -8.046174|    0.824005|    0.012001|
|         649|   -5.882483|   -8.045168|    0.824005|    0.012002|
|         650|   -5.889021|   -8.044294|    0.824005|    0.012002|
|         651|   -5.895315|   -8.043569|    0.824005|    0.012003|
|         652|   -5.901305|   -8.043007|    0.824005|    0.012003|
|         653|   -5.906900|   -8.042624|    0.824005|    0.012003|
|         654|   -5.912008|   -8.042432|    0.824004|    0.012004|
|         655|   -5.916555|   -8.042446|    0.824004|    0.012004|
|         656|   -5.920509|   -8.042676|    0.824004|    0.012004|
|         657|   -5.923879|   -8.043135|    0.824004|    0.012005|
|         658|   -5.926716|   -8.043831|    0.824004|    0.012005|
|         659|   -5.929097|   -8.044774|    0.824004|    0.012005|
|         660|   -5.931115|   -8.045974|    0.824004|    0.012006|
|         661|   -5.932864|   -8.047436|    0.824004|    0.012006|
|         662|   -5.934429|   -8.049169|    0.824004|    0.012006|
|         663|   -5.935885|   -8.051179|    0.824004|    0.012007|
|         664|   -5.937296|   -8.053466|    0.824004|    0.012007|
|         665|   -5.938715|   -8.056032|    0.824004|    0.012007|
|         666|   -5.940189|   -8.058874|    0.824004|    0.012007|
|         667|   -5.941765|   -8.061990|    0.824004|    0.012008|
|         668|   -5.943485|   -8.065376|    0.824004|    0.012008|
|         669|   -5.945391|   -8.069023|    0.824004|    0.012008|
|         670|   -5.947523|   -8.072925|    0.824003|    0.012008|
|         671|   -5.949920|   -8.077069|    0.824003|    0.012008|
|         672|   -5.952615|   -8.081442|    0.824003|    0.012008|
|         673|   -5.955639|   -8.086031|    0.824003|    0.012009|
|         674|   -5.959017|   -8.090823|    0.824003|    0.012009|
|         675|   -5.962768|   -8.095802|    0.824003|    0.012009|
|         676|   -5.966908|   -8.100950|    0.824002|    0.012009|
|         677|   -5.971447|   -8.106254|    0.824002|    0.012009|
|         678|   -5.976391|   -8.111701|    0.824002|    0.012009|
|         679|   -5.981742|   -8.117278|    0.824002|    0.012009|
|         680|   -5.987495|   -8.122973|    0.824001|    0.012009|
|         681|   -5.993645|   -8.128778|    0.824001|    0.012009|
|         682|   -6.000177|   -8.134687|    0.824001|    0.012009|
|         683|   -6.007074|   -8.140695|    0.824000|    0.012009|
|         684|   -6.014313|   -8.146802|    0.824000|    0.012009|
|         685|   -6.021863|   -8.153008|    0.824000|    0.012008|
|         686|   -6.029689|   -8.159317|    0.823999|    0.012008|
|         687|   -6.037748|   -8.165735|    0.823999|    0.012008|
|         688|   -6.045991|   -8.172269|    0.823998|    0.012008|
|         689|   -6.054363|   -8.178928|    0.823998|    0.012008|
|         690|   -6.062801|   -8.185720|    0.823997|    0.012007|
|         691|   -6.071238|   -8.192648|    0.823997|    0.012007|
|         692|   -6.079602|   -8.199718|    0.823996|    0.012007|
|         693|   -6.087818|   -8.206928|    0.823996|    0.012007|
|         694|   -6.095807|   -8.214270|    0.823995|    0.012006|
|         695|   -6.103494|   -8.221732|    0.823995|    0.012006|
|         696|   -6.110804|   -8.229301|    0.823994|    0.012006|
|         697|   -6.117667|   -8.236965|    0.823994|    0.012006|
|         698|   -6.124023|   -8.244701|    0.823993|    0.012005|
|         699|   -6.129821|   -8.252484|    0.823993|    0.012005|
|         700|   -6.135025|   -8.260282|    0.823993|    0.012005|
|         701|   -6.139612|   -8.268058|    0.823992|    0.012005|
+-----------------------------------------------------------------------+
|Fixed CL Mode                           |Value                         |
+-----------------------------------------------------------------------+
|Current CL                              |0.823992                      |
|Target CL                               |0.824                         |
|Previous AOA                            |2.77816                       |
|Changed AoA by                          |3.74615e-05                   |
+-----------------------------------------------------------------------+
+----------------------------------------------------------------+
|  Inner_Iter|    rms[Rho]|     rms[nu]|          CL|          CD|
+----------------------------------------------------------------+
|         702|   -4.619566|   -8.249131|    0.823992|    0.012005|
|         703|   -5.002999|   -8.269110|    0.823991|    0.012004|
|         704|   -5.244774|   -8.280045|    0.823991|    0.012004|
|         705|   -5.322618|   -8.289127|    0.823991|    0.012004|
|         706|   -5.375612|   -8.297469|    0.823990|    0.012003|
|         707|   -5.443870|   -8.305283|    0.823990|    0.012003|
|         708|   -5.527285|   -8.312584|    0.823990|    0.012003|
|         709|   -5.612793|   -8.319350|    0.823989|    0.012002|
|         710|   -5.684439|   -8.325553|    0.823989|    0.012002|
|         711|   -5.735138|   -8.331166|    0.823989|    0.012002|
|         712|   -5.767480|   -8.336181|    0.823989|    0.012001|
|         713|   -5.785732|   -8.340642|    0.823989|    0.012001|
|         714|   -5.793721|   -8.344625|    0.823989|    0.012001|
|         715|   -5.796652|   -8.348203|    0.823988|    0.012000|
|         716|   -5.800199|   -8.351430|    0.823988|    0.012000|
|         717|   -5.808109|   -8.354346|    0.823988|    0.012000|
|         718|   -5.821159|   -8.356993|    0.823988|    0.012000|
|         719|   -5.837693|   -8.359425|    0.823988|    0.011999|
|         720|   -5.854993|   -8.361702|    0.823988|    0.011999|
|         721|   -5.870860|   -8.363877|    0.823988|    0.011999|
|         722|   -5.884617|   -8.365996|    0.823988|    0.011999|
|         723|   -5.896937|   -8.368091|    0.823989|    0.011998|
|         724|   -5.908888|   -8.370189|    0.823989|    0.011998|
|         725|   -5.921103|   -8.372316|    0.823989|    0.011998|
|         726|   -5.933541|   -8.374505|    0.823989|    0.011998|
|         727|   -5.945710|   -8.376784|    0.823989|    0.011998|
|         728|   -5.957003|   -8.379175|    0.823989|    0.011998|
|         729|   -5.966924|   -8.381708|    0.823990|    0.011997|
|         730|   -5.975190|   -8.384405|    0.823990|    0.011997|
|         731|   -5.981757|   -8.387288|    0.823990|    0.011997|
|         732|   -5.986844|   -8.390373|    0.823990|    0.011997|
|         733|   -5.990913|   -8.393670|    0.823991|    0.011997|
|         734|   -5.994584|   -8.397182|    0.823991|    0.011997|
|         735|   -5.998485|   -8.400909|    0.823991|    0.011997|
|         736|   -6.003118|   -8.404847|    0.823992|    0.011997|
|         737|   -6.008766|   -8.408982|    0.823992|    0.011997|
|         738|   -6.015460|   -8.413301|    0.823992|    0.011997|
|         739|   -6.022990|   -8.417786|    0.823993|    0.011997|
|         740|   -6.030955|   -8.422415|    0.823993|    0.011997|
|         741|   -6.038839|   -8.427167|    0.823994|    0.011997|
|         742|   -6.046121|   -8.432015|    0.823994|    0.011997|
|         743|   -6.052401|   -8.436933|    0.823994|    0.011997|
|         744|   -6.057501|   -8.441893|    0.823995|    0.011997|
|         745|   -6.061505|   -8.446863|    0.823995|    0.011998|
|         746|   -6.064719|   -8.451809|    0.823996|    0.011998|
|         747|   -6.067563|   -8.456690|    0.823996|    0.011998|
|         748|   -6.070448|   -8.461466|    0.823996|    0.011998|
|         749|   -6.073683|   -8.466091|    0.823997|    0.011998|
|         750|   -6.077420|   -8.470515|    0.823997|    0.011998|
|         751|   -6.081648|   -8.474685|    0.823998|    0.011999|
|         752|   -6.086231|   -8.478545|    0.823998|    0.011999|
|         753|   -6.090951|   -8.482049|    0.823998|    0.011999|
|         754|   -6.095577|   -8.485156|    0.823999|    0.011999|
|         755|   -6.099910|   -8.487839|    0.823999|    0.011999|
|         756|   -6.103823|   -8.490074|    0.824000|    0.012000|
|         757|   -6.107267|   -8.491834|    0.824000|    0.012000|
|         758|   -6.110270|   -8.493100|    0.824000|    0.012000|
|         759|   -6.112903|   -8.493859|    0.824001|    0.012000|
|         760|   -6.115262|   -8.494111|    0.824001|    0.012001|
|         761|   -6.117434|   -8.493863|    0.824001|    0.012001|
|         762|   -6.119484|   -8.493135|    0.824002|    0.012001|
|         763|   -6.121450|   -8.491955|    0.824002|    0.012001|
|         764|   -6.123342|   -8.490362|    0.824002|    0.012002|
|         765|   -6.125151|   -8.488402|    0.824003|    0.012002|
|         766|   -6.126861|   -8.486127|    0.824003|    0.012002|
|         767|   -6.128448|   -8.483595|    0.824003|    0.012002|
|         768|   -6.129895|   -8.480864|    0.824003|    0.012003|
|         769|   -6.131189|   -8.478005|    0.824004|    0.012003|
|         770|   -6.132319|   -8.475078|    0.824004|    0.012003|
|         771|   -6.133282|   -8.472134|    0.824004|    0.012003|
|         772|   -6.134072|   -8.469223|    0.824004|    0.012003|
|         773|   -6.134684|   -8.466401|    0.824004|    0.012004|
|         774|   -6.135114|   -8.463716|    0.824004|    0.012004|
|         775|   -6.135355|   -8.461211|    0.824004|    0.012004|
|         776|   -6.135400|   -8.458921|    0.824004|    0.012004|
|         777|   -6.135246|   -8.456879|    0.824004|    0.012005|
|         778|   -6.134887|   -8.455110|    0.824004|    0.012005|
|         779|   -6.134324|   -8.453637|    0.824004|    0.012005|
|         780|   -6.133560|   -8.452478|    0.824004|    0.012005|
|         781|   -6.132598|   -8.451646|    0.824004|    0.012005|
|         782|   -6.131448|   -8.451149|    0.824004|    0.012005|
|         783|   -6.130118|   -8.450996|    0.824004|    0.012005|
|         784|   -6.128620|   -8.451188|    0.824004|    0.012006|
|         785|   -6.126968|   -8.451727|    0.824004|    0.012006|
|         786|   -6.125176|   -8.452612|    0.824003|    0.012006|
|         787|   -6.123257|   -8.453840|    0.824003|    0.012006|
|         788|   -6.121227|   -8.455407|    0.824003|    0.012006|
|         789|   -6.119101|   -8.457306|    0.824002|    0.012006|
|         790|   -6.116893|   -8.459531|    0.824002|    0.012006|
|         791|   -6.114619|   -8.462073|    0.824002|    0.012006|
|         792|   -6.112292|   -8.464925|    0.824001|    0.012006|
|         793|   -6.109927|   -8.468077|    0.824001|    0.012006|
|         794|   -6.107538|   -8.471516|    0.824001|    0.012006|
|         795|   -6.105137|   -8.475230|    0.824000|    0.012006|
|         796|   -6.102738|   -8.479203|    0.824000|    0.012006|
|         797|   -6.100355|   -8.483417|    0.823999|    0.012006|
|         798|   -6.098000|   -8.487849|    0.823999|    0.012006|
|         799|   -6.095685|   -8.492473|    0.823998|    0.012006|
|         800|   -6.093423|   -8.497259|    0.823998|    0.012006|
|         801|   -6.091226|   -8.502171|    0.823997|    0.012006|
+-----------------------------------------------------------------------+
|Fixed CL Mode                           |Value                         |
+-----------------------------------------------------------------------+
|Current CL                              |0.823997                      |
|Target CL                               |0.824                         |
|Previous AOA                            |2.7782                        |
|Changed AoA by                          |1.03791e-05                   |
+-----------------------------------------------------------------------+
+----------------------------------------------------------------+
|  Inner_Iter|    rms[Rho]|     rms[nu]|          CL|          CD|
+----------------------------------------------------------------+
|         802|   -5.173475|   -8.500640|    0.823997|    0.012006|
|         803|   -5.537397|   -8.508604|    0.823997|    0.012006|
|         804|   -5.736988|   -8.514391|    0.823996|    0.012006|
|         805|   -5.794065|   -8.519743|    0.823996|    0.012006|
|         806|   -5.832563|   -8.524877|    0.823995|    0.012006|
|         807|   -5.878018|   -8.529785|    0.823995|    0.012005|
|         808|   -5.926361|   -8.534405|    0.823994|    0.012005|
|         809|   -5.967991|   -8.538665|    0.823994|    0.012005|
|         810|   -5.997276|   -8.542493|    0.823993|    0.012005|
|         811|   -6.015450|   -8.545822|    0.823993|    0.012005|
|         812|   -6.026231|   -8.548604|    0.823993|    0.012005|
|         813|   -6.032214|   -8.550805|    0.823992|    0.012004|
|         814|   -6.034980|   -8.552416|    0.823992|    0.012004|
|         815|   -6.036049|   -8.553440|    0.823992|    0.012004|
|         816|   -6.036932|   -8.553892|    0.823991|    0.012004|
|         817|   -6.038635|   -8.553801|    0.823991|    0.012004|
|         818|   -6.041396|   -8.553213|    0.823991|    0.012004|
|         819|   -6.044847|   -8.552187|    0.823990|    0.012003|
|         820|   -6.048426|   -8.550792|    0.823990|    0.012003|
|         821|   -6.051746|   -8.549103|    0.823990|    0.012003|
|         822|   -6.054723|   -8.547194|    0.823990|    0.012003|
|         823|   -6.057482|   -8.545141|    0.823990|    0.012003|
|         824|   -6.060174|   -8.543019|    0.823990|    0.012002|
|         825|   -6.062867|   -8.540900|    0.823989|    0.012002|
|         826|   -6.065531|   -8.538850|    0.823989|    0.012002|
|         827|   -6.068092|   -8.536930|    0.823989|    0.012002|
|         828|   -6.070483|   -8.535191|    0.823989|    0.012002|
|         829|   -6.072666|   -8.533676|    0.823989|    0.012001|
|         830|   -6.074628|   -8.532422|    0.823989|    0.012001|
|         831|   -6.076374|   -8.531452|    0.823989|    0.012001|
|         832|   -6.077920|   -8.530784|    0.823989|    0.012001|
|         833|   -6.079295|   -8.530429|    0.823989|    0.012001|
|         834|   -6.080534|   -8.530386|    0.823990|    0.012001|
|         835|   -6.081666|   -8.530650|    0.823990|    0.012000|
|         836|   -6.082707|   -8.531208|    0.823990|    0.012000|
|         837|   -6.083651|   -8.532041|    0.823990|    0.012000|
|         838|   -6.084472|   -8.533126|    0.823990|    0.012000|
|         839|   -6.085128|   -8.534437|    0.823990|    0.012000|
|         840|   -6.085566|   -8.535944|    0.823991|    0.012000|
|         841|   -6.085738|   -8.537615|    0.823991|    0.012000|
|         842|   -6.085605|   -8.539418|    0.823991|    0.012000|
|         843|   -6.085146|   -8.541322|    0.823991|    0.012000|
|         844|   -6.084366|   -8.543295|    0.823991|    0.011999|
|         845|   -6.083294|   -8.545308|    0.823992|    0.011999|
|         846|   -6.081974|   -8.547335|    0.823992|    0.011999|
|         847|   -6.080459|   -8.549353|    0.823992|    0.011999|
|         848|   -6.078801|   -8.551340|    0.823992|    0.011999|
|         849|   -6.077042|   -8.553279|    0.823993|    0.011999|
|         850|   -6.075213|   -8.555162|    0.823993|    0.011999|
|         851|   -6.073336|   -8.556983|    0.823993|    0.011999|
|         852|   -6.071423|   -8.558740|    0.823994|    0.011999|
|         853|   -6.069485|   -8.560433|    0.823994|    0.011999|
|         854|   -6.067535|   -8.562064|    0.823994|    0.011999|
|         855|   -6.065588|   -8.563638|    0.823994|    0.011999|
|         856|   -6.063668|   -8.565158|    0.823995|    0.011999|
|         857|   -6.061800|   -8.566629|    0.823995|    0.011999|
|         858|   -6.060013|   -8.568056|    0.823995|    0.011999|
|         859|   -6.058339|   -8.569442|    0.823995|    0.011999|
|         860|   -6.056806|   -8.570789|    0.823996|    0.011999|
|         861|   -6.055441|   -8.572099|    0.823996|    0.011999|
|         862|   -6.054266|   -8.573372|    0.823996|    0.011999|
|         863|   -6.053302|   -8.574605|    0.823996|    0.011999|
|         864|   -6.052564|   -8.575796|    0.823997|    0.012000|
|         865|   -6.052064|   -8.576941|    0.823997|    0.012000|
|         866|   -6.051814|   -8.578035|    0.823997|    0.012000|
|         867|   -6.051822|   -8.579073|    0.823997|    0.012000|
|         868|   -6.052094|   -8.580051|    0.823997|    0.012000|
|         869|   -6.052637|   -8.580965|    0.823998|    0.012000|
|         870|   -6.053453|   -8.581812|    0.823998|    0.012000|
|         871|   -6.054543|   -8.582592|    0.823998|    0.012000|
|         872|   -6.055906|   -8.583303|    0.823998|    0.012000|
|         873|   -6.057541|   -8.583950|    0.823998|    0.012000|
|         874|   -6.059441|   -8.584535|    0.823998|    0.012001|
|         875|   -6.061600|   -8.585065|    0.823999|    0.012001|
|         876|   -6.064007|   -8.585547|    0.823999|    0.012001|
|         877|   -6.066651|   -8.585992|    0.823999|    0.012001|
|         878|   -6.069518|   -8.586409|    0.823999|    0.012001|
|         879|   -6.072593|   -8.586810|    0.823999|    0.012001|
|         880|   -6.075856|   -8.587209|    0.823999|    0.012001|
|         881|   -6.079288|   -8.587621|    0.823999|    0.012001|
|         882|   -6.082866|   -8.588062|    0.823999|    0.012002|
|         883|   -6.086567|   -8.588550|    0.823999|    0.012002|
|         884|   -6.090363|   -8.589100|    0.823999|    0.012002|
|         885|   -6.094227|   -8.589728|    0.823999|    0.012002|
|         886|   -6.098128|   -8.590452|    0.823999|    0.012002|
|         887|   -6.102035|   -8.591287|    0.823999|    0.012002|
|         888|   -6.105915|   -8.592250|    0.823999|    0.012002|
|         889|   -6.109732|   -8.593355|    0.823999|    0.012002|
|         890|   -6.113454|   -8.594619|    0.823999|    0.012002|
|         891|   -6.117043|   -8.596054|    0.823998|    0.012003|
|         892|   -6.120466|   -8.597676|    0.823998|    0.012003|
|         893|   -6.123688|   -8.599494|    0.823998|    0.012003|
|         894|   -6.126677|   -8.601521|    0.823998|    0.012003|
|         895|   -6.129404|   -8.603763|    0.823998|    0.012003|
|         896|   -6.131841|   -8.606225|    0.823998|    0.012003|
|         897|   -6.133966|   -8.608909|    0.823997|    0.012003|
|         898|   -6.135760|   -8.611811|    0.823997|    0.012003|
|         899|   -6.137210|   -8.614924|    0.823997|    0.012003|
|         900|   -6.138306|   -8.618235|    0.823997|    0.012003|
|         901|   -6.139048|   -8.621724|    0.823996|    0.012004|
+-----------------------------------------------------------------------+
|Fixed CL Mode                           |Value                         |
+-----------------------------------------------------------------------+
|Current CL                              |0.823996                      |
|Target CL                               |0.824                         |
|Previous AOA                            |2.77821                       |
[...]
|        5298|   -6.041372|   -7.964675|    0.824237|    0.012007|
|        5299|   -6.048068|   -7.968739|    0.824238|    0.012007|
|        5300|   -6.054359|   -7.972816|    0.824238|    0.012007|
|        5301|   -6.060208|   -7.976922|    0.824238|    0.012006|
|        5302|   -6.065591|   -7.981069|    0.824238|    0.012006|
|        5303|   -6.070494|   -7.985266|    0.824238|    0.012006|
|        5304|   -6.074916|   -7.989520|    0.824238|    0.012006|
|        5305|   -6.078868|   -7.993836|    0.824238|    0.012006|
|        5306|   -6.082375|   -7.998220|    0.824238|    0.012006|
|        5307|   -6.085468|   -8.002675|    0.824238|    0.012006|
|        5308|   -6.088189|   -8.007203|    0.824239|    0.012006|
|        5309|   -6.090585|   -8.011807|    0.824239|    0.012006|
|        5310|   -6.092711|   -8.016490|    0.824239|    0.012006|
|        5311|   -6.094624|   -8.021255|    0.824239|    0.012006|
|        5312|   -6.096382|   -8.026109|    0.824239|    0.012006|
|        5313|   -6.098043|   -8.031056|    0.824239|    0.012006|
|        5314|   -6.099662|   -8.036102|    0.824239|    0.012006|
|        5315|   -6.101290|   -8.041254|    0.824239|    0.012006|
|        5316|   -6.102976|   -8.046518|    0.824239|    0.012006|
|        5317|   -6.104763|   -8.051902|    0.824240|    0.012006|
|        5318|   -6.106688|   -8.057414|    0.824240|    0.012006|
|        5319|   -6.108782|   -8.063064|    0.824240|    0.012006|
|        5320|   -6.111071|   -8.068862|    0.824240|    0.012006|
|        5321|   -6.113572|   -8.074815|    0.824240|    0.012007|
|        5322|   -6.116298|   -8.080933|    0.824240|    0.012007|
|        5323|   -6.119254|   -8.087219|    0.824241|    0.012007|
|        5324|   -6.122436|   -8.093675|    0.824241|    0.012007|
|        5325|   -6.125838|   -8.100304|    0.824241|    0.012007|
|        5326|   -6.129445|   -8.107104|    0.824241|    0.012007|
|        5327|   -6.133235|   -8.114070|    0.824241|    0.012007|
|        5328|   -6.137183|   -8.121198|    0.824241|    0.012007|
|        5329|   -6.141257|   -8.128480|    0.824241|    0.012007|
|        5330|   -6.145422|   -8.135905|    0.824242|    0.012007|
|        5331|   -6.149640|   -8.143462|    0.824242|    0.012007|
|        5332|   -6.153870|   -8.151137|    0.824242|    0.012007|
|        5333|   -6.158068|   -8.158916|    0.824242|    0.012007|
|        5334|   -6.162192|   -8.166783|    0.824242|    0.012008|
|        5335|   -6.166199|   -8.174723|    0.824242|    0.012008|
|        5336|   -6.170051|   -8.182718|    0.824243|    0.012008|
|        5337|   -6.173713|   -8.190754|    0.824243|    0.012008|
|        5338|   -6.177156|   -8.198814|    0.824243|    0.012008|
|        5339|   -6.180356|   -8.206881|    0.824243|    0.012008|
|        5340|   -6.183299|   -8.214947|    0.824243|    0.012008|
|        5341|   -6.185976|   -8.223000|    0.824243|    0.012008|
|        5342|   -6.188388|   -8.231023|    0.824243|    0.012008|
|        5343|   -6.190544|   -8.239004|    0.824243|    0.012008|
|        5344|   -6.192461|   -8.246926|    0.824244|    0.012008|
|        5345|   -6.194165|   -8.254780|    0.824244|    0.012008|
|        5346|   -6.195685|   -8.262553|    0.824244|    0.012009|
|        5347|   -6.197060|   -8.270241|    0.824244|    0.012009|
|        5348|   -6.198328|   -8.277835|    0.824244|    0.012009|
|        5349|   -6.199534|   -8.285336|    0.824244|    0.012009|
|        5350|   -6.200720|   -8.292740|    0.824244|    0.012009|
|        5351|   -6.201932|   -8.300048|    0.824244|    0.012009|
|        5352|   -6.203212|   -8.307259|    0.824244|    0.012009|
|        5353|   -6.204602|   -8.314370|    0.824244|    0.012009|
|        5354|   -6.206139|   -8.321377|    0.824244|    0.012009|
|        5355|   -6.207859|   -8.328276|    0.824244|    0.012009|
|        5356|   -6.209794|   -8.335060|    0.824244|    0.012009|
|        5357|   -6.211971|   -8.341722|    0.824245|    0.012009|
|        5358|   -6.214414|   -8.348254|    0.824245|    0.012009|
|        5359|   -6.217140|   -8.354647|    0.824245|    0.012009|
|        5360|   -6.220164|   -8.360894|    0.824245|    0.012009|
|        5361|   -6.223494|   -8.366986|    0.824245|    0.012009|
|        5362|   -6.227133|   -8.372914|    0.824245|    0.012009|
|        5363|   -6.231081|   -8.378667|    0.824245|    0.012009|
|        5364|   -6.235329|   -8.384234|    0.824245|    0.012009|
|        5365|   -6.239868|   -8.389604|    0.824245|    0.012009|
|        5366|   -6.244681|   -8.394775|    0.824245|    0.012009|
|        5367|   -6.249747|   -8.399743|    0.824245|    0.012009|
|        5368|   -6.255039|   -8.404498|    0.824245|    0.012009|
|        5369|   -6.260528|   -8.409029|    0.824245|    0.012009|
|        5370|   -6.266179|   -8.413331|    0.824244|    0.012009|
|        5371|   -6.271955|   -8.417406|    0.824244|    0.012009|
|        5372|   -6.277813|   -8.421260|    0.824244|    0.012009|
|        5373|   -6.283709|   -8.424899|    0.824244|    0.012009|
|        5374|   -6.289596|   -8.428333|    0.824244|    0.012009|
|        5375|   -6.295425|   -8.431575|    0.824244|    0.012009|
|        5376|   -6.301148|   -8.434638|    0.824244|    0.012009|
|        5377|   -6.306717|   -8.437539|    0.824244|    0.012008|
|        5378|   -6.312086|   -8.440295|    0.824244|    0.012008|
|        5379|   -6.317212|   -8.442927|    0.824244|    0.012008|
|        5380|   -6.322056|   -8.445456|    0.824244|    0.012008|
|        5381|   -6.326585|   -8.447902|    0.824244|    0.012008|
|        5382|   -6.330771|   -8.450287|    0.824244|    0.012008|
|        5383|   -6.334595|   -8.452632|    0.824244|    0.012008|
|        5384|   -6.338043|   -8.454955|    0.824244|    0.012008|
|        5385|   -6.341108|   -8.457276|    0.824244|    0.012008|
|        5386|   -6.343793|   -8.459613|    0.824244|    0.012008|
|        5387|   -6.346103|   -8.461982|    0.824244|    0.012008|
|        5388|   -6.348051|   -8.464396|    0.824244|    0.012008|
|        5389|   -6.349657|   -8.466865|    0.824244|    0.012007|
|        5390|   -6.350943|   -8.469396|    0.824244|    0.012007|
|        5391|   -6.351935|   -8.471991|    0.824245|    0.012007|
|        5392|   -6.352659|   -8.474651|    0.824245|    0.012007|
|        5393|   -6.353144|   -8.477374|    0.824245|    0.012007|
|        5394|   -6.353415|   -8.480155|    0.824245|    0.012007|
|        5395|   -6.353501|   -8.482989|    0.824245|    0.012007|
|        5396|   -6.353426|   -8.485868|    0.824245|    0.012007|
|        5397|   -6.353214|   -8.488783|    0.824245|    0.012007|
|        5398|   -6.352884|   -8.491725|    0.824245|    0.012007|
|        5399|   -6.352454|   -8.494679|    0.824245|    0.012006|
|        5400|   -6.351940|   -8.497629|    0.824246|    0.012006|
|        5401|   -6.351354|   -8.500558|    0.824246|    0.012006|
|        5402|   -6.350708|   -8.503448|    0.824246|    0.012006|
|        5403|   -6.350008|   -8.506285|    0.824246|    0.012006|
|        5404|   -6.349263|   -8.509052|    0.824246|    0.012006|
|        5405|   -6.348477|   -8.511735|    0.824246|    0.012006|
|        5406|   -6.347654|   -8.514321|    0.824246|    0.012006|
|        5407|   -6.346798|   -8.516796|    0.824247|    0.012006|
|        5408|   -6.345910|   -8.519151|    0.824247|    0.012006|
|        5409|   -6.344994|   -8.521376|    0.824247|    0.012006|
|        5410|   -6.344051|   -8.523462|    0.824247|    0.012005|
|        5411|   -6.343083|   -8.525404|    0.824247|    0.012005|
|        5412|   -6.342092|   -8.527197|    0.824247|    0.012005|
|        5413|   -6.341082|   -8.528837|    0.824247|    0.012005|
|        5414|   -6.340055|   -8.530323|    0.824248|    0.012005|
|        5415|   -6.339016|   -8.531654|    0.824248|    0.012005|
|        5416|   -6.337969|   -8.532830|    0.824248|    0.012005|
|        5417|   -6.336919|   -8.533854|    0.824248|    0.012005|
|        5418|   -6.335872|   -8.534725|    0.824248|    0.012005|
|        5419|   -6.334835|   -8.535447|    0.824248|    0.012005|
|        5420|   -6.333815|   -8.536021|    0.824248|    0.012005|
|        5421|   -6.332820|   -8.536448|    0.824248|    0.012005|
|        5422|   -6.331859|   -8.536733|    0.824249|    0.012005|
|        5423|   -6.330942|   -8.536875|    0.824249|    0.012005|
|        5424|   -6.330080|   -8.536878|    0.824249|    0.012005|
|        5425|   -6.329282|   -8.536745|    0.824249|    0.012005|
|        5426|   -6.328563|   -8.536477|    0.824249|    0.012005|
|        5427|   -6.327933|   -8.536080|    0.824249|    0.012005|
|        5428|   -6.327406|   -8.535556|    0.824249|    0.012005|
|        5429|   -6.326997|   -8.534912|    0.824249|    0.012005|
|        5430|   -6.326718|   -8.534155|    0.824249|    0.012005|
|        5431|   -6.326585|   -8.533292|    0.824249|    0.012005|
|        5432|   -6.326612|   -8.532332|    0.824249|    0.012005|
|        5433|   -6.326813|   -8.531287|    0.824249|    0.012005|
|        5434|   -6.327204|   -8.530168|    0.824249|    0.012005|
|        5435|   -6.327798|   -8.528989|    0.824249|    0.012005|
|        5436|   -6.328608|   -8.527764|    0.824250|    0.012005|
|        5437|   -6.329648|   -8.526506|    0.824250|    0.012005|
|        5438|   -6.330928|   -8.525232|    0.824250|    0.012005|
|        5439|   -6.332460|   -8.523957|    0.824250|    0.012005|
|        5440|   -6.334252|   -8.522695|    0.824250|    0.012005|
|        5441|   -6.336312|   -8.521461|    0.824250|    0.012005|
|        5442|   -6.338643|   -8.520270|    0.824250|    0.012005|
|        5443|   -6.341250|   -8.519134|    0.824250|    0.012005|
|        5444|   -6.344133|   -8.518065|    0.824250|    0.012005|
|        5445|   -6.347290|   -8.517075|    0.824249|    0.012005|
|        5446|   -6.350716|   -8.516173|    0.824249|    0.012005|
|        5447|   -6.354403|   -8.515368|    0.824249|    0.012005|
|        5448|   -6.358339|   -8.514665|    0.824249|    0.012005|
|        5449|   -6.362510|   -8.514069|    0.824249|    0.012005|
|        5450|   -6.366899|   -8.513586|    0.824249|    0.012005|
|        5451|   -6.371482|   -8.513216|    0.824249|    0.012005|
|        5452|   -6.376236|   -8.512960|    0.824249|    0.012006|
|        5453|   -6.381130|   -8.512820|    0.824249|    0.012006|
|        5454|   -6.386133|   -8.512792|    0.824249|    0.012006|
|        5455|   -6.391207|   -8.512875|    0.824249|    0.012006|
|        5456|   -6.396316|   -8.513066|    0.824249|    0.012006|
|        5457|   -6.401416|   -8.513360|    0.824249|    0.012006|
|        5458|   -6.406464|   -8.513754|    0.824249|    0.012006|
|        5459|   -6.411415|   -8.514241|    0.824248|    0.012006|
|        5460|   -6.416223|   -8.514816|    0.824248|    0.012006|
|        5461|   -6.420843|   -8.515474|    0.824248|    0.012006|
|        5462|   -6.425231|   -8.516208|    0.824248|    0.012006|
|        5463|   -6.429343|   -8.517013|    0.824248|    0.012006|
|        5464|   -6.433143|   -8.517883|    0.824248|    0.012006|
|        5465|   -6.436596|   -8.518813|    0.824248|    0.012007|
|        5466|   -6.439674|   -8.519795|    0.824247|    0.012007|
|        5467|   -6.442353|   -8.520826|    0.824247|    0.012007|
|        5468|   -6.444620|   -8.521899|    0.824247|    0.012007|
|        5469|   -6.446466|   -8.523010|    0.824247|    0.012007|
|        5470|   -6.447892|   -8.524153|    0.824247|    0.012007|
|        5471|   -6.448903|   -8.525325|    0.824247|    0.012007|
|        5472|   -6.449516|   -8.526520|    0.824246|    0.012007|
|        5473|   -6.449751|   -8.527736|    0.824246|    0.012007|
|        5474|   -6.449634|   -8.528967|    0.824246|    0.012007|
|        5475|   -6.449198|   -8.530210|    0.824246|    0.012007|
|        5476|   -6.448477|   -8.531462|    0.824246|    0.012007|
|        5477|   -6.447509|   -8.532719|    0.824245|    0.012007|
|        5478|   -6.446335|   -8.533979|    0.824245|    0.012007|
|        5479|   -6.444995|   -8.535239|    0.824245|    0.012007|
|        5480|   -6.443531|   -8.536496|    0.824245|    0.012007|
|        5481|   -6.441981|   -8.537749|    0.824245|    0.012007|
|        5482|   -6.440385|   -8.538996|    0.824244|    0.012007|
|        5483|   -6.438779|   -8.540237|    0.824244|    0.012007|
|        5484|   -6.437197|   -8.541470|    0.824244|    0.012007|
|        5485|   -6.435672|   -8.542695|    0.824244|    0.012007|
|        5486|   -6.434232|   -8.543913|    0.824244|    0.012007|
|        5487|   -6.432903|   -8.545125|    0.824243|    0.012007|
|        5488|   -6.431710|   -8.546332|    0.824243|    0.012007|
|        5489|   -6.430672|   -8.547535|    0.824243|    0.012007|
|        5490|   -6.429807|   -8.548738|    0.824243|    0.012007|
|        5491|   -6.429132|   -8.549944|    0.824243|    0.012007|
|        5492|   -6.428657|   -8.551157|    0.824243|    0.012007|
|        5493|   -6.428394|   -8.552377|    0.824242|    0.012007|
|        5494|   -6.428351|   -8.553607|    0.824242|    0.012007|
|        5495|   -6.428534|   -8.554849|    0.824242|    0.012007|
|        5496|   -6.428947|   -8.556107|    0.824242|    0.012007|
|        5497|   -6.429593|   -8.557385|    0.824242|    0.012007|
|        5498|   -6.430473|   -8.558689|    0.824242|    0.012007|
|        5499|   -6.431588|   -8.560023|    0.824242|    0.011993|
+-----------------------------------------------------------------------+
|Fixed CL Mode (Finite Difference)       |Value                         |
+-----------------------------------------------------------------------+
|Delta CL / Delta AoA                    |0.241838                      |
|Delta CD / Delta CL                     |0.0186989                     |
|Delta CMz / Delta CL                    |0.00297546                    |
+-----------------------------------------------------------------------+
Writing Flow Meta-Data file: flow.meta

----------------------------- Solver Exit -------------------------------

Maximum number of iterations reached (ITER = 5500) before convergence.
+-----------------------------------------------------------------------+
|      Convergence Field     |     Value    |   Criterion  |  Converged |
+-----------------------------------------------------------------------+
|                    rms[Rho]|      -6.43159|         < -12|          No|
+-----------------------------------------------------------------------+
-------------------------------------------------------------------------

--------------------------- Finalizing Solver ---------------------------
Deleted CNumerics container.
Deleted CIntegration container.
Deleted CSolver container.
Deleted CIteration container.
Deleted CInterface container.
Deleted CGeometry container.
Deleted CFreeFormDefBox class.
Deleted CSurfaceMovement class.
Deleted CVolumetricMovement class.
Deleted CConfig container.
Deleted nInst container.
Deleted COutput class.
-------------------------------------------------------------------------

------------------------- Exit Success (SU2_CFD) ------------------------


-------------------------------------------------------------------------
|    ___ _   _ ___                                                      |
|   / __| | | |_  )   Release 8.0.0 "Harrier"                           |
|   \__ \ |_| |/ /                                                      |
|   |___/\___//___|   Suite (Solution Exporting Code)                   |
|                                                                       |
-------------------------------------------------------------------------
| SU2 Project Website: https://su2code.github.io                        |
|                                                                       |
| The SU2 Project is maintained by the SU2 Foundation                   |
| (http://su2foundation.org)                                            |
-------------------------------------------------------------------------
| Copyright 2012-2023, SU2 Contributors                                 |
|                                                                       |
| SU2 is free software; you can redistribute it and/or                  |
| modify it under the terms of the GNU Lesser General Public            |
| License as published by the Free Software Foundation; either          |
| version 2.1 of the License, or (at your option) any later version.    |
|                                                                       |
| SU2 is distributed in the hope that it will be useful,                |
| but WITHOUT ANY WARRANTY; without even the implied warranty of        |
| MERCHANTABILITY or FITNESS FOR A PARTICULAR PURPOSE. See the GNU      |
| Lesser General Public License for more details.                       |
|                                                                       |
| You should have received a copy of the GNU Lesser General Public      |
| License along with SU2. If not, see <http://www.gnu.org/licenses/>.   |
-------------------------------------------------------------------------

----------------- Physical Case Definition ( Zone 0 ) -------------------
Input mesh file name: mesh_RAE2822_turb_deform.su2

-------------------- Output Information ( Zone 0 ) ----------------------
The tabular file format is CSV (.csv).
Flow variables file name: flow.

------------- Config File Boundary Information ( Zone 0 ) ---------------
+-----------------------------------------------------------------------+
|                        Marker Type|                        Marker Name|
+-----------------------------------------------------------------------+
|                          Far-field|                           FARFIELD|
+-----------------------------------------------------------------------+
|                     Heat flux wall|                            AIRFOIL|
+-----------------------------------------------------------------------+
Two dimensional problem.
13937 grid points before partitioning.
22842 volume elements before partitioning.
2 surface markers.
192 boundary elements in index 0 (Marker = AIRFOIL).
40 boundary elements in index 1 (Marker = FARFIELD).
Executing the partitioning functions.
Building the graph adjacency structure.
Calling ParMETIS... graph partitioning complete (831 edge cuts).
Distributing ParMETIS coloring.
Rebalancing vertices.
Rebalancing volume element connectivity.
Rebalancing markers and surface elements.
14875 vertices including ghost points. 
23674 interior elements including halo cells. 
18780 triangles.
4894 quadrilaterals.
Establishing MPI communication patterns.
Identify vertices.
Storing a mapping from global to local point index.

------------------------- Solution Postprocessing -----------------------
Reading and storing the solution from restart_flow.
Volume output fields: COORDINATES, SOLUTION
  Info: Ignoring the following screen output fields:
  RMS_DENSITY, RMS_NU_TILDE, LIFT, DRAG
Screen output fields: INNER_ITER
  Info: Ignoring the following history output groups:
  RMS_RES, AERO_COEFF
History output group(s): ITER
Warning: No (valid) fields chosen for convergence monitoring. Convergence monitoring inactive.
Warning: No (valid) fields chosen for time convergence monitoring. Time convergence monitoring inactive.
|Paraview                           |flow.vtu                           |
|Paraview surface                   |surface_flow.vtu                   |
|CSV file                           |surface_flow.csv                   |

------------------------- Finalize Solver -------------------------
Deleted CGeometry container.
Deleted CSolver class.
Deleted CConfig container.
Deleted COutput class.

Completed in 0.016404 seconds on 6 cores.

------------------------- Exit Success (SU2_SOL) ------------------------

