
-------------------------------------------------------------------------
|    ___ _   _ ___                                                      |
|   / __| | | |_  )   Release 8.0.0 "Harrier"                           |
|   \__ \ |_| |/ /                                                      |
|   |___/\___//___|   Suite (Computational Fluid Dynamics Code)         |
|                                                                       |
-------------------------------------------------------------------------
| SU2 Project Website: https://su2code.github.io                        |
|                                                                       |
| The SU2 Project is maintained by the SU2 Foundation                   |
| (http://su2foundation.org)                                            |
-------------------------------------------------------------------------
| Copyright 2012-2023, SU2 Contributors                                 |
|                                                                       |
| SU2 is free software; you can redistribute it and/or                  |
| modify it under the terms of the GNU Lesser General Public            |
| License as published by the Free Software Foundation; either          |
| version 2.1 of the License, or (at your option) any later version.    |
|                                                                       |
| SU2 is distributed in the hope that it will be useful,                |
| but WITHOUT ANY WARRANTY; without even the implied warranty of        |
| MERCHANTABILITY or FITNESS FOR A PARTICULAR PURPOSE. See the GNU      |
| Lesser General Public License for more details.                       |
|                                                                       |
| You should have received a copy of the GNU Lesser General Public      |
| License along with SU2. If not, see <http://www.gnu.org/licenses/>.   |
-------------------------------------------------------------------------

Parsing config file for zone 0

----------------- Physical Case Definition ( Zone 0 ) -------------------
Compressible RANS equations.
Turbulence model: Spalart-Allmaras-noft2
Hybrid RANS/LES: No Hybrid RANS/LES
Mach number: 0.734.
Angle of attack (AoA): 2.31 deg, and angle of sideslip (AoS): 0 deg.
Reynolds number: 6.5e+06. Reference length 1.
Fixed CL mode, target value: 0.824.
Reading and writing binary SU2 native restart files.
Read flow solution from: solution_flow.dat.
Dimensional simulation.
The reference area is 1 m^2.
The semi-span will be computed using the max y(3D) value.
The reference length is 1 m.
Reference origin for moment evaluation is (0.25, 0, 0).
Surface(s) where the force coefficients are evaluated: AIRFOIL.

Surface(s) plotted in the output file: AIRFOIL.
Surface(s) affected by the design variables: AIRFOIL.
Input mesh file name: mesh_RAE2822_turb_deform.su2

--------------- Space Numerical Integration ( Zone 0 ) ------------------
Jameson-Schmidt-Turkel scheme (2nd order in space) for the flow inviscid terms.
JST viscous coefficients (2nd & 4th): 0.5, 0.02.
The method includes a grid stretching correction (p = 0.3).
Scalar upwind solver for the turbulence model.
First order integration in space.
Average of gradients with correction (viscous flow terms).
Average of gradients with correction (viscous turbulence terms).
Gradient for viscous and source terms: inverse-distance weighted Least-Squares.

--------------- Time Numerical Integration  ( Zone 0 ) ------------------
Local time stepping (steady state simulation).
Euler implicit method for the flow equations.
FGMRES is used for solving the linear system.
Using a ILU(0) preconditioning.
Convergence criteria of the linear solver: 1e-06.
Max number of linear iterations: 10.
No CFL adaptation.
Courant-Friedrichs-Lewy number:       10
Euler implicit time integration for the turbulence model.

------------------ Convergence Criteria  ( Zone 0 ) ---------------------
Maximum number of solver subiterations: 5500.
Begin convergence monitoring at iteration 10.
Residual minimum value: 1e-12.
Cauchy series min. value: 1e-06.
Number of Cauchy elements: 100.
Begin windowed time average at iteration 0.

-------------------- Output Information ( Zone 0 ) ----------------------
File writing frequency: 
+------------------------------------+
|                     File| Frequency|
+------------------------------------+
|                  RESTART|     10000|
|                 PARAVIEW|     10000|
|         SURFACE_PARAVIEW|     10000|
|              SURFACE_CSV|     10000|
+------------------------------------+
Writing the convergence history file every 1 inner iterations.
Writing the screen convergence history every 1 inner iterations.
The tabular file format is CSV (.csv).
Convergence history file name: history_direct.
Forces breakdown file name: forces_breakdown.dat.
Surface file name: surface_flow.
Volume file name: flow.
Restart file name: restart_flow.dat.

------------- Config File Boundary Information ( Zone 0 ) ---------------
+-----------------------------------------------------------------------+
|                        Marker Type|                        Marker Name|
+-----------------------------------------------------------------------+
|                          Far-field|                           FARFIELD|
+-----------------------------------------------------------------------+
|                     Heat flux wall|                            AIRFOIL|
+-----------------------------------------------------------------------+

-------------------- Output Preprocessing ( Zone 0 ) --------------------

WARNING: SURFACE_PRESSURE_DROP can only be computed for at least 2 surfaces (outlet, inlet, ...)

Screen output fields: INNER_ITER, RMS_DENSITY, RMS_NU_TILDE, LIFT, DRAG
History output group(s): ITER, RMS_RES, AERO_COEFF
Convergence field(s): RMS_DENSITY
Warning: No (valid) fields chosen for time convergence monitoring. Time convergence monitoring inactive.
Volume output fields: COORDINATES, SOLUTION, PRIMITIVE

------------------- Geometry Preprocessing ( Zone 0 ) -------------------
Two dimensional problem.
13937 grid points before partitioning.
22842 volume elements before partitioning.
2 surface markers.
192 boundary elements in index 0 (Marker = AIRFOIL).
40 boundary elements in index 1 (Marker = FARFIELD).
Executing the partitioning functions.
Building the graph adjacency structure.
Calling ParMETIS... graph partitioning complete (831 edge cuts).
Distributing ParMETIS coloring.
Rebalancing vertices.
Rebalancing volume element connectivity.
Rebalancing markers and surface elements.
14875 vertices including ghost points. 
23674 interior elements including halo cells. 
18780 triangles.
4894 quadrilaterals.
Establishing MPI communication patterns.
Setting point connectivity.
Renumbering points (Reverse Cuthill McKee Ordering).
Recomputing point connectivity.
Setting element connectivity.
Checking the numerical grid orientation.
All volume elements are correctly orientend.
All surface elements are correctly orientend.
Identifying edges and vertices.
Setting the control volume structure.
Area of the computational grid: 32209.9.
Searching for the closest normal neighbors to the surfaces.
Storing a mapping from global to local point index.
Compute the surface curvature.
Max K: 174.906. Mean K: 7.85051. Standard deviation K: 24.0678.
Checking for periodicity.
Computing mesh quality statistics for the dual control volumes.
+--------------------------------------------------------------+
|           Mesh Quality Metric|        Minimum|        Maximum|
+--------------------------------------------------------------+
|    Orthogonality Angle (deg.)|        75.1246|        89.9991|
|     CV Face Area Aspect Ratio|        1.00395|         3358.5|
|           CV Sub-Volume Ratio|        1.00046|        1215.32|
+--------------------------------------------------------------+
Finding max control volume width.
Communicating number of neighbors.
Wetted area = 2.02184 m.
Area projection in the x-plane = 0.124887 m, y-plane = 0.995873 m.
Max. coordinate in the x-direction = 1 m, y-direction = 0.0620721 m.
Min. coordinate in the x-direction = 0 m, y-direction = -0.0599475 m.
Computing wall distances.

-------------------- Solver Preprocessing ( Zone 0 ) --------------------
WARNING: AoA in the solution file (2.79002 deg.) +
         AoA offset in mesh file (0 deg.) = 2.79002 deg.
WARNING: SU2 will use the dCD/dCL provided in the direct solution file: 0.0174593.
WARNING: SU2 will use the dCMz/dCL provided in the direct solution file: 0.00149824.
Viscous flow: Computing pressure using the ideal gas law
based on the free-stream temperature and a density computed
from the Reynolds number.
Force coefficients computed using free-stream values.

-- Models:
+------------------------------------------------------------------------------+
|          Viscosity Model|        Conductivity Model|              Fluid Model|
+------------------------------------------------------------------------------+
|               SUTHERLAND|          CONSTANT_PRANDTL|             STANDARD_AIR|
+------------------------------------------------------------------------------+
-- Fluid properties:
+------------------------------------------------------------------------------+
|                  Name|    Dim. value|    Ref. value|      Unit|Non-dim. value|
+------------------------------------------------------------------------------+
|        Ref. Viscosity|     1.716e-05|             1|   N.s/m^2|     1.716e-05|
|      Sutherland Temp.|        273.15|             1|         K|        273.15|
|     Sutherland Const.|         110.4|             1|         K|         110.4|
+------------------------------------------------------------------------------+
|        Prandtl (Lam.)|             -|             -|         -|          0.71|
|       Prandtl (Turb.)|             -|             -|         -|           0.9|
+------------------------------------------------------------------------------+
|          Gas Constant|       287.058|             1|  N.m/kg.K|       287.058|
|      Spec. Heat Ratio|             -|             -|         -|           1.4|
+------------------------------------------------------------------------------+
-- Initial and free-stream conditions:
+------------------------------------------------------------------------------+
|                  Name|    Dim. value|    Ref. value|      Unit|Non-dim. value|
+------------------------------------------------------------------------------+
|       Static Pressure|         38515|             1|        Pa|         38515|
|               Density|      0.465631|             1|    kg/m^3|      0.465631|
|           Temperature|        288.15|             1|         K|        288.15|
|          Total Energy|        237984|             1|   m^2/s^2|        237984|
|            Velocity-X|       249.482|             1|       m/s|       249.482|
|            Velocity-Y|       12.1581|             1|       m/s|       12.1581|
|    Velocity Magnitude|       249.778|             1|       m/s|       249.778|
+------------------------------------------------------------------------------+
|             Viscosity|    1.7893e-05|             1|   N.s/m^2|    1.7893e-05|
|          Conductivity|             -|             1|   W/m^2.K|             -|
|     Turb. Kin. Energy|       233.959|             1|   m^2/s^2|       233.959|
|     Spec. Dissipation|        608834|             1|       1/s|        608834|
+------------------------------------------------------------------------------+
|           Mach Number|             -|             -|         -|         0.734|
|       Reynolds Number|             -|             -|         -|       6.5e+06|
+------------------------------------------------------------------------------+
Initialize Jacobian structure (Navier-Stokes). MG level: 0.
Initialize Jacobian structure (SA model).

------------------- Numerics Preprocessing ( Zone 0 ) -------------------

----------------- Integration Preprocessing ( Zone 0 ) ------------------

------------------- Iteration Preprocessing ( Zone 0 ) ------------------
Euler/Navier-Stokes/RANS fluid iteration.

------------------------------ Begin Solver -----------------------------

Simulation Run using the Single-zone Driver
WARNING: SU2 was not compiled for an AVX-capable architecture. Performance could be better,
         see https://su2code.github.io/docs_v7/Build-SU2-Linux-MacOS/#compiler-optimizations
+----------------------------------------------------------------+
|  Inner_Iter|    rms[Rho]|     rms[nu]|          CL|          CD|
+----------------------------------------------------------------+
|           0|   -4.932101|   -6.191663|    0.824079|    0.011934|
|           1|   -4.990968|   -6.294714|    0.824128|    0.011944|
|           2|   -5.053802|   -6.412551|    0.824155|    0.011952|
|           3|   -5.100801|   -6.542740|    0.824166|    0.011956|
|           4|   -5.133387|   -6.683072|    0.824169|    0.011957|
|           5|   -5.155771|   -6.814808|    0.824168|    0.011957|
|           6|   -5.168875|   -6.888642|    0.824166|    0.011958|
|           7|   -5.172547|   -6.884354|    0.824167|    0.011959|
|           8|   -5.167830|   -6.849642|    0.824170|    0.011961|
|           9|   -5.156901|   -6.820206|    0.824175|    0.011964|
|          10|   -5.142236|   -6.802447|    0.824182|    0.011969|
|          11|   -5.126168|   -6.792053|    0.824189|    0.011974|
|          12|   -5.110609|   -6.783743|    0.824197|    0.011980|
|          13|   -5.096804|   -6.774950|    0.824205|    0.011987|
|          14|   -5.085217|   -6.766152|    0.824212|    0.011994|
|          15|   -5.075667|   -6.759116|    0.824218|    0.012002|
|          16|   -5.067639|   -6.754976|    0.824223|    0.012010|
|          17|   -5.060649|   -6.753341|    0.824227|    0.012019|
|          18|   -5.054487|   -6.752421|    0.824229|    0.012027|
|          19|   -5.049251|   -6.749824|    0.824229|    0.012035|
|          20|   -5.045205|   -6.743666|    0.824228|    0.012043|
|          21|   -5.042556|   -6.733458|    0.824225|    0.012051|
|          22|   -5.041301|   -6.720252|    0.824222|    0.012058|
|          23|   -5.041186|   -6.706028|    0.824217|    0.012065|
|          24|   -5.041777|   -6.692863|    0.824212|    0.012070|
|          25|   -5.042593|   -6.682363|    0.824207|    0.012075|
|          26|   -5.043235|   -6.675481|    0.824202|    0.012080|
|          27|   -5.043465|   -6.672567|    0.824196|    0.012083|
|          28|   -5.043216|   -6.673503|    0.824191|    0.012086|
|          29|   -5.042544|   -6.677850|    0.824187|    0.012088|
|          30|   -5.041562|   -6.684968|    0.824182|    0.012089|
|          31|   -5.040378|   -6.694108|    0.824178|    0.012090|
|          32|   -5.039063|   -6.704485|    0.824174|    0.012090|
|          33|   -5.037645|   -6.715325|    0.824171|    0.012090|
|          34|   -5.036113|   -6.725910|    0.824167|    0.012090|
|          35|   -5.034436|   -6.735609|    0.824164|    0.012089|
|          36|   -5.032576|   -6.743917|    0.824160|    0.012088|
|          37|   -5.030500|   -6.750485|    0.824155|    0.012087|
|          38|   -5.028186|   -6.755150|    0.824150|    0.012086|
|          39|   -5.025624|   -6.757946|    0.824145|    0.012085|
|          40|   -5.022813|   -6.759086|    0.824139|    0.012083|
|          41|   -5.019766|   -6.758932|    0.824132|    0.012082|
|          42|   -5.016506|   -6.757927|    0.824125|    0.012080|
|          43|   -5.013065|   -6.756545|    0.824116|    0.012079|
|          44|   -5.009475|   -6.755230|    0.824108|    0.012077|
|          45|   -5.005768|   -6.754367|    0.824099|    0.012075|
|          46|   -5.001960|   -6.754254|    0.824090|    0.012073|
|          47|   -4.998055|   -6.755099|    0.824081|    0.012071|
|          48|   -4.994036|   -6.757019|    0.824072|    0.012069|
|          49|   -4.989874|   -6.760037|    0.824064|    0.012067|
|          50|   -4.985532|   -6.764094|    0.824057|    0.012065|
|          51|   -4.980974|   -6.769049|    0.824051|    0.012063|
|          52|   -4.976177|   -6.774683|    0.824045|    0.012060|
|          53|   -4.971138|   -6.780715|    0.824041|    0.012058|
|          54|   -4.965878|   -6.786816|    0.824039|    0.012056|
|          55|   -4.960440|   -6.792643|    0.824038|    0.012053|
|          56|   -4.954884|   -6.797877|    0.824039|    0.012051|
|          57|   -4.949283|   -6.802257|    0.824041|    0.012049|
|          58|   -4.943714|   -6.805614|    0.824045|    0.012046|
|          59|   -4.938246|   -6.807879|    0.824050|    0.012044|
|          60|   -4.932941|   -6.809082|    0.824057|    0.012042|
|          61|   -4.927847|   -6.809314|    0.824065|    0.012040|
|          62|   -4.922995|   -6.808705|    0.824073|    0.012038|
|          63|   -4.918400|   -6.807384|    0.824083|    0.012036|
|          64|   -4.914067|   -6.805464|    0.824093|    0.012034|
|          65|   -4.909986|   -6.803037|    0.824103|    0.012033|
|          66|   -4.906143|   -6.800187|    0.824114|    0.012031|
|          67|   -4.902519|   -6.797003|    0.824125|    0.012030|
|          68|   -4.899096|   -6.793604|    0.824135|    0.012028|
|          69|   -4.895858|   -6.790142|    0.824145|    0.012027|
|          70|   -4.892794|   -6.786800|    0.824155|    0.012025|
|          71|   -4.889901|   -6.783782|    0.824164|    0.012024|
|          72|   -4.887180|   -6.781289|    0.824173|    0.012023|
|          73|   -4.884637|   -6.779496|    0.824181|    0.012022|
|          74|   -4.882282|   -6.778532|    0.824189|    0.012021|
|          75|   -4.880124|   -6.778471|    0.824196|    0.012020|
|          76|   -4.878169|   -6.779321|    0.824203|    0.012019|
|          77|   -4.876418|   -6.781028|    0.824209|    0.012018|
|          78|   -4.874869|   -6.783485|    0.824215|    0.012017|
|          79|   -4.873511|   -6.786547|    0.824220|    0.012017|
|          80|   -4.872326|   -6.790047|    0.824225|    0.012016|
|          81|   -4.871293|   -6.793813|    0.824230|    0.012016|
|          82|   -4.870388|   -6.797688|    0.824235|    0.012015|
|          83|   -4.869584|   -6.801541|    0.824239|    0.012015|
|          84|   -4.868859|   -6.805273|    0.824243|    0.012014|
|          85|   -4.868190|   -6.808821|    0.824247|    0.012014|
|          86|   -4.867562|   -6.812153|    0.824251|    0.012014|
|          87|   -4.866965|   -6.815262|    0.824254|    0.012013|
|          88|   -4.866397|   -6.818154|    0.824258|    0.012013|
|          89|   -4.865859|   -6.820846|    0.824261|    0.012013|
|          90|   -4.865361|   -6.823356|    0.824264|    0.012013|
|          91|   -4.864917|   -6.825698|    0.824267|    0.012013|
|          92|   -4.864548|   -6.827883|    0.824270|    0.012014|
|          93|   -4.864274|   -6.829918|    0.824274|    0.012014|
|          94|   -4.864121|   -6.831808|    0.824277|    0.012014|
|          95|   -4.864115|   -6.833557|    0.824280|    0.012014|
|          96|   -4.864282|   -6.835171|    0.824283|    0.012015|
|          97|   -4.864646|   -6.836656|    0.824287|    0.012015|
|          98|   -4.865227|   -6.838023|    0.824290|    0.012016|
|          99|   -4.866040|   -6.839283|    0.824294|    0.012016|
|         100|   -4.867094|   -6.840453|    0.824298|    0.012017|
|         101|   -4.868388|   -6.841547|    0.824302|    0.011997|
+-----------------------------------------------------------------------+
|Fixed CL Mode                           |Value                         |
+-----------------------------------------------------------------------+
|Current CL                              |0.824302                      |
|Target CL                               |0.824                         |
|Previous AOA                            |2.79002                       |
|Changed AoA by                          |-0.00148963                   |
+-----------------------------------------------------------------------+
+----------------------------------------------------------------+
|  Inner_Iter|    rms[Rho]|     rms[nu]|          CL|          CD|
+----------------------------------------------------------------+
|         102|   -3.020165|   -6.788879|    0.824306|    0.011998|
|         103|   -3.403354|   -6.815212|    0.824311|    0.011999|
|         104|   -3.644335|   -6.824076|    0.824315|    0.012000|
|         105|   -3.722308|   -6.829388|    0.824320|    0.012001|
|         106|   -3.776411|   -6.833443|    0.824324|    0.012002|
|         107|   -3.846772|   -6.836804|    0.824329|    0.012003|
|         108|   -3.933959|   -6.839677|    0.824334|    0.012005|
|         109|   -4.025682|   -6.842193|    0.824338|    0.012006|
|         110|   -4.105662|   -6.844438|    0.824343|    0.012008|
|         111|   -4.164982|   -6.846448|    0.824347|    0.012009|
|         112|   -4.204363|   -6.848258|    0.824351|    0.012011|
|         113|   -4.227027|   -6.849944|    0.824355|    0.012012|
|         114|   -4.236710|   -6.851607|    0.824359|    0.012014|
|         115|   -4.239607|   -6.853323|    0.824362|    0.012015|
|         116|   -4.242791|   -6.855121|    0.824365|    0.012017|
|         117|   -4.250960|   -6.857009|    0.824368|    0.012019|
|         118|   -4.265201|   -6.858996|    0.824371|    0.012020|
|         119|   -4.283649|   -6.861108|    0.824373|    0.012021|
|         120|   -4.303076|   -6.863382|    0.824375|    0.012023|
|         121|   -4.320769|   -6.865850|    0.824376|    0.012024|
|         122|   -4.335823|   -6.868532|    0.824378|    0.012025|
|         123|   -4.349027|   -6.871427|    0.824379|    0.012027|
|         124|   -4.361710|   -6.874527|    0.824380|    0.012028|
|         125|   -4.374692|   -6.877816|    0.824380|    0.012029|
|         126|   -4.387973|   -6.881281|    0.824381|    0.012030|
|         127|   -4.401005|   -6.884910|    0.824381|    0.012031|
|         128|   -4.413104|   -6.888695|    0.824381|    0.012032|
|         129|   -4.423720|   -6.892626|    0.824382|    0.012033|
|         130|   -4.432545|   -6.896698|    0.824382|    0.012034|
|         131|   -4.439544|   -6.900907|    0.824382|    0.012034|
|         132|   -4.444984|   -6.905252|    0.824381|    0.012035|
|         133|   -4.449417|   -6.909730|    0.824381|    0.012036|
|         134|   -4.453580|   -6.914340|    0.824381|    0.012036|
|         135|   -4.458229|   -6.919064|    0.824381|    0.012037|
|         136|   -4.463975|   -6.923912|    0.824381|    0.012038|
|         137|   -4.471171|   -6.928879|    0.824380|    0.012038|
|         138|   -4.479867|   -6.933958|    0.824380|    0.012039|
|         139|   -4.489821|   -6.939141|    0.824379|    0.012039|
|         140|   -4.500535|   -6.944419|    0.824378|    0.012039|
|         141|   -4.511338|   -6.949787|    0.824377|    0.012040|
|         142|   -4.521520|   -6.955243|    0.824376|    0.012040|
|         143|   -4.530501|   -6.960792|    0.824375|    0.012041|
|         144|   -4.537991|   -6.966437|    0.824373|    0.012041|
|         145|   -4.544069|   -6.972189|    0.824371|    0.012041|
|         146|   -4.549141|   -6.978052|    0.824368|    0.012041|
|         147|   -4.553798|   -6.984040|    0.824365|    0.012042|
|         148|   -4.558642|   -6.990167|    0.824362|    0.012042|
|         149|   -4.564137|   -6.996443|    0.824358|    0.012042|
|         150|   -4.570531|   -7.002880|    0.824353|    0.012042|
|         151|   -4.577837|   -7.009491|    0.824348|    0.012042|
|         152|   -4.585870|   -7.016280|    0.824342|    0.012042|
|         153|   -4.594313|   -7.023277|    0.824336|    0.012041|
|         154|   -4.602800|   -7.030455|    0.824329|    0.012041|
|         155|   -4.610992|   -7.037823|    0.824321|    0.012041|
|         156|   -4.618644|   -7.045378|    0.824312|    0.012040|
|         157|   -4.625633|   -7.053114|    0.824303|    0.012039|
|         158|   -4.631957|   -7.061037|    0.824293|    0.012039|
|         159|   -4.637708|   -7.069126|    0.824283|    0.012038|
|         160|   -4.643020|   -7.077375|    0.824272|    0.012037|
|         161|   -4.648035|   -7.085775|    0.824260|    0.012036|
|         162|   -4.652867|   -7.094331|    0.824248|    0.012035|
|         163|   -4.657589|   -7.103038|    0.824235|    0.012034|
|         164|   -4.662234|   -7.111880|    0.824223|    0.012033|
|         165|   -4.666806|   -7.120841|    0.824209|    0.012032|
|         166|   -4.671290|   -7.129900|    0.824196|    0.012031|
|         167|   -4.675671|   -7.139032|    0.824182|    0.012029|
|         168|   -4.679934|   -7.148193|    0.824169|    0.012028|
|         169|   -4.684076|   -7.157326|    0.824156|    0.012027|
|         170|   -4.688100|   -7.166362|    0.824142|    0.012025|
|         171|   -4.692009|   -7.175213|    0.824129|    0.012024|
|         172|   -4.695807|   -7.183776|    0.824117|    0.012022|
|         173|   -4.699493|   -7.191940|    0.824105|    0.012021|
|         174|   -4.703057|   -7.199586|    0.824093|    0.012020|
|         175|   -4.706485|   -7.206600|    0.824082|    0.012018|
|         176|   -4.709756|   -7.212855|    0.824072|    0.012017|
|         177|   -4.712850|   -7.218250|    0.824062|    0.012015|
|         178|   -4.715745|   -7.222705|    0.824054|    0.012014|
|         179|   -4.718426|   -7.226164|    0.824046|    0.012013|
|         180|   -4.720884|   -7.228610|    0.824039|    0.012012|
|         181|   -4.723118|   -7.230077|    0.824033|    0.012010|
|         182|   -4.725137|   -7.230633|    0.824028|    0.012009|
|         183|   -4.726960|   -7.230370|    0.824025|    0.012008|
|         184|   -4.728614|   -7.229416|    0.824022|    0.012007|
|         185|   -4.730136|   -7.227935|    0.824020|    0.012006|
|         186|   -4.731572|   -7.226111|    0.824019|    0.012005|
|         187|   -4.732974|   -7.224133|    0.824019|    0.012004|
|         188|   -4.734398|   -7.222181|    0.824020|    0.012003|
|         189|   -4.735908|   -7.220437|    0.824021|    0.012002|
|         190|   -4.737566|   -7.219065|    0.824024|    0.012001|
|         191|   -4.739436|   -7.218216|    0.824027|    0.012001|
|         192|   -4.741582|   -7.218028|    0.824032|    0.012000|
|         193|   -4.744061|   -7.218616|    0.824036|    0.011999|
|         194|   -4.746927|   -7.220072|    0.824042|    0.011998|
|         195|   -4.750230|   -7.222470|    0.824048|    0.011998|
|         196|   -4.754007|   -7.225866|    0.824054|    0.011997|
|         197|   -4.758288|   -7.230299|    0.824061|    0.011996|
|         198|   -4.763095|   -7.235789|    0.824068|    0.011996|
|         199|   -4.768434|   -7.242341|    0.824076|    0.011995|
|         200|   -4.774302|   -7.249935|    0.824084|    0.011994|
|         201|   -4.780680|   -7.258533|    0.824092|    0.011988|
+-----------------------------------------------------------------------+
|Fixed CL Mode                           |Value                         |
+-----------------------------------------------------------------------+
|Current CL                              |0.824092                      |
|Target CL                               |0.824                         |
|Previous AOA                            |2.78853                       |
|Changed AoA by                          |-0.000418405                  |
+-----------------------------------------------------------------------+
+----------------------------------------------------------------+
|  Inner_Iter|    rms[Rho]|     rms[nu]|          CL|          CD|
+----------------------------------------------------------------+
|         202|   -3.571009|   -7.234166|    0.824100|    0.011987|
|         203|   -3.949914|   -7.259038|    0.824109|    0.011987|
|         204|   -4.177229|   -7.274387|    0.824117|    0.011987|
|         205|   -4.245204|   -7.288448|    0.824126|    0.011986|
|         206|   -4.292713|   -7.302391|    0.824134|    0.011986|
|         207|   -4.355171|   -7.316338|    0.824143|    0.011985|
|         208|   -4.431103|   -7.330180|    0.824151|    0.011985|
|         209|   -4.508582|   -7.343739|    0.824159|    0.011985|
|         210|   -4.574741|   -7.356774|    0.824167|    0.011985|
|         211|   -4.624441|   -7.368988|    0.824175|    0.011985|
|         212|   -4.659497|   -7.380077|    0.824183|    0.011984|
|         213|   -4.682541|   -7.389814|    0.824190|    0.011984|
|         214|   -4.695849|   -7.398069|    0.824197|    0.011984|
|         215|   -4.703158|   -7.404784|    0.824204|    0.011984|
|         216|   -4.709162|   -7.409955|    0.824211|    0.011984|
|         217|   -4.717352|   -7.413642|    0.824217|    0.011985|
|         218|   -4.728820|   -7.415978|    0.824222|    0.011985|
|         219|   -4.742592|   -7.417164|    0.824227|    0.011985|
|         220|   -4.756829|   -7.417451|    0.824232|    0.011985|
|         221|   -4.770120|   -7.417102|    0.824236|    0.011985|
|         222|   -4.782166|   -7.416353|    0.824240|    0.011986|
|         223|   -4.793537|   -7.415406|    0.824243|    0.011986|
|         224|   -4.804934|   -7.414431|    0.824246|    0.011987|
|         225|   -4.816618|   -7.413568|    0.824248|    0.011987|
|         226|   -4.828315|   -7.412934|    0.824250|    0.011987|
|         227|   -4.839467|   -7.412627|    0.824251|    0.011988|
|         228|   -4.849548|   -7.412722|    0.824252|    0.011989|
|         229|   -4.858275|   -7.413273|    0.824252|    0.011989|
|         230|   -4.865647|   -7.414313|    0.824252|    0.011990|
|         231|   -4.871918|   -7.415852|    0.824252|    0.011990|
|         232|   -4.877532|   -7.417881|    0.824251|    0.011991|
|         233|   -4.883051|   -7.420369|    0.824249|    0.011992|
|         234|   -4.889060|   -7.423265|    0.824248|    0.011992|
|         235|   -4.896068|   -7.426502|    0.824245|    0.011993|
|         236|   -4.904421|   -7.430002|    0.824243|    0.011994|
|         237|   -4.914257|   -7.433675|    0.824240|    0.011994|
|         238|   -4.925487|   -7.437429|    0.824237|    0.011995|
|         239|   -4.937819|   -7.441170|    0.824234|    0.011996|
|         240|   -4.950788|   -7.444815|    0.824230|    0.011997|
|         241|   -4.963819|   -7.448286|    0.824227|    0.011997|
|         242|   -4.976321|   -7.451523|    0.824223|    0.011998|
|         243|   -4.987801|   -7.454477|    0.824219|    0.011999|
|         244|   -4.997968|   -7.457119|    0.824214|    0.012000|
|         245|   -5.006796|   -7.459441|    0.824210|    0.012000|
|         246|   -5.014498|   -7.461446|    0.824206|    0.012001|
|         247|   -5.021441|   -7.463154|    0.824201|    0.012002|
|         248|   -5.028022|   -7.464597|    0.824197|    0.012003|
|         249|   -5.034562|   -7.465813|    0.824192|    0.012004|
|         250|   -5.041238|   -7.466847|    0.824188|    0.012004|
|         251|   -5.048069|   -7.467744|    0.824183|    0.012005|
|         252|   -5.054940|   -7.468546|    0.824179|    0.012006|
|         253|   -5.061662|   -7.469291|    0.824174|    0.012007|
|         254|   -5.068029|   -7.470016|    0.824170|    0.012007|
|         255|   -5.073880|   -7.470742|    0.824165|    0.012008|
|         256|   -5.079139|   -7.471485|    0.824160|    0.012009|
|         257|   -5.083823|   -7.472249|    0.824156|    0.012009|
|         258|   -5.088035|   -7.473030|    0.824151|    0.012010|
|         259|   -5.091932|   -7.473821|    0.824146|    0.012011|
|         260|   -5.095688|   -7.474612|    0.824141|    0.012011|
|         261|   -5.099468|   -7.475393|    0.824136|    0.012012|
|         262|   -5.103405|   -7.476155|    0.824131|    0.012012|
|         263|   -5.107597|   -7.476891|    0.824126|    0.012013|
|         264|   -5.112104|   -7.477603|    0.824121|    0.012013|
|         265|   -5.116960|   -7.478302|    0.824116|    0.012014|
|         266|   -5.122181|   -7.479006|    0.824111|    0.012014|
|         267|   -5.127774|   -7.479742|    0.824106|    0.012014|
|         268|   -5.133745|   -7.480552|    0.824100|    0.012015|
|         269|   -5.140097|   -7.481484|    0.824095|    0.012015|
|         270|   -5.146834|   -7.482597|    0.824089|    0.012015|
|         271|   -5.153958|   -7.483951|    0.824084|    0.012015|
|         272|   -5.161463|   -7.485605|    0.824078|    0.012015|
|         273|   -5.169336|   -7.487615|    0.824073|    0.012015|
|         274|   -5.177553|   -7.490026|    0.824067|    0.012015|
|         275|   -5.186080|   -7.492872|    0.824061|    0.012015|
|         276|   -5.194869|   -7.496165|    0.824056|    0.012015|
|         277|   -5.203868|   -7.499893|    0.824051|    0.012015|
|         278|   -5.213014|   -7.504023|    0.824045|    0.012015|
|         279|   -5.222237|   -7.508494|    0.824040|    0.012015|
|         280|   -5.231465|   -7.513213|    0.824035|    0.012015|
|         281|   -5.240623|   -7.518057|    0.824030|    0.012014|
|         282|   -5.249637|   -7.522878|    0.824025|    0.012014|
|         283|   -5.258433|   -7.527498|    0.824020|    0.012014|
|         284|   -5.266941|   -7.531726|    0.824016|    0.012013|
|         285|   -5.275095|   -7.535365|    0.824012|    0.012013|
|         286|   -5.282838|   -7.538224|    0.824008|    0.012012|
|         287|   -5.290120|   -7.540136|    0.824004|    0.012012|
|         288|   -5.296901|   -7.540967|    0.824001|    0.012011|
|         289|   -5.303151|   -7.540651|    0.823997|    0.012011|
|         290|   -5.308854|   -7.539179|    0.823995|    0.012010|
|         291|   -5.314003|   -7.536613|    0.823992|    0.012009|
|         292|   -5.318604|   -7.533081|    0.823990|    0.012009|
|         293|   -5.322676|   -7.528765|    0.823988|    0.012008|
|         294|   -5.326245|   -7.523885|    0.823986|    0.012007|
|         295|   -5.329349|   -7.518681|    0.823984|    0.012007|
|         296|   -5.332033|   -7.513405|    0.823983|    0.012006|
|         297|   -5.334349|   -7.508296|    0.823982|    0.012005|
|         298|   -5.336351|   -7.503577|    0.823982|    0.012005|
|         299|   -5.338099|   -7.499449|    0.823981|    0.012004|
|         300|   -5.339654|   -7.496081|    0.823981|    0.012003|
|         301|   -5.341075|   -7.493616|    0.823981|    0.012004|
+-----------------------------------------------------------------------+
|Fixed CL Mode                           |Value                         |
+-----------------------------------------------------------------------+
|Current CL                              |0.823981                      |
|Target CL                               |0.824                         |
|Previous AOA                            |2.78811                       |
|Changed AoA by                          |9.52853e-05                   |
+-----------------------------------------------------------------------+
+----------------------------------------------------------------+
|  Inner_Iter|    rms[Rho]|     rms[nu]|          CL|          CD|
+----------------------------------------------------------------+
|         302|   -4.213283|   -7.488186|    0.823981|    0.012003|
|         303|   -4.598086|   -7.490169|    0.823982|    0.012002|
|         304|   -4.851370|   -7.491533|    0.823982|    0.012002|
|         305|   -4.938123|   -7.493734|    0.823983|    0.012001|
|         306|   -4.990748|   -7.497001|    0.823984|    0.012000|
|         307|   -5.051469|   -7.501357|    0.823985|    0.012000|
|         308|   -5.118170|   -7.506757|    0.823987|    0.011999|
|         309|   -5.175008|   -7.513114|    0.823988|    0.011999|
|         310|   -5.209644|   -7.520302|    0.823990|    0.011998|
|         311|   -5.224491|   -7.528165|    0.823991|    0.011998|
|         312|   -5.228716|   -7.536521|    0.823993|    0.011997|
|         313|   -5.228578|   -7.545171|    0.823994|    0.011997|
|         314|   -5.227240|   -7.553893|    0.823996|    0.011996|
|         315|   -5.227017|   -7.562452|    0.823997|    0.011996|
|         316|   -5.229799|   -7.570596|    0.823999|    0.011996|
|         317|   -5.236450|   -7.578071|    0.824000|    0.011996|
|         318|   -5.246476|   -7.584652|    0.824002|    0.011995|
|         319|   -5.258319|   -7.590156|    0.824003|    0.011995|
|         320|   -5.270117|   -7.594459|    0.824004|    0.011995|
|         321|   -5.280550|   -7.597505|    0.824006|    0.011995|
|         322|   -5.289277|   -7.599310|    0.824007|    0.011995|
|         323|   -5.296760|   -7.599960|    0.824008|    0.011995|
|         324|   -5.303748|   -7.599599|    0.824009|    0.011995|
|         325|   -5.310823|   -7.598418|    0.824010|    0.011995|
|         326|   -5.318243|   -7.596634|    0.824010|    0.011995|
|         327|   -5.325992|   -7.594470|    0.824011|    0.011995|
|         328|   -5.333896|   -7.592145|    0.824012|    0.011995|
|         329|   -5.341703|   -7.589860|    0.824012|    0.011995|
|         330|   -5.349144|   -7.587792|    0.824012|    0.011996|
|         331|   -5.355987|   -7.586086|    0.824013|    0.011996|
|         332|   -5.362103|   -7.584861|    0.824013|    0.011996|
|         333|   -5.367506|   -7.584203|    0.824013|    0.011996|
|         334|   -5.372353|   -7.584171|    0.824013|    0.011997|
|         335|   -5.376901|   -7.584798|    0.824013|    0.011997|
|         336|   -5.381424|   -7.586092|    0.824013|    0.011997|
|         337|   -5.386154|   -7.588038|    0.824013|    0.011998|
|         338|   -5.391230|   -7.590602|    0.824013|    0.011998|
|         339|   -5.396687|   -7.593732|    0.824013|    0.011999|
|         340|   -5.402455|   -7.597362|    0.824013|    0.011999|
|         341|   -5.408396|   -7.601414|    0.824013|    0.011999|
|         342|   -5.414337|   -7.605797|    0.824013|    0.012000|
|         343|   -5.420127|   -7.610416|    0.824013|    0.012000|
|         344|   -5.425672|   -7.615167|    0.824013|    0.012001|
|         345|   -5.430960|   -7.619943|    0.824013|    0.012001|
|         346|   -5.436057|   -7.624632|    0.824013|    0.012002|
|         347|   -5.441079|   -7.629137|    0.824013|    0.012002|
|         348|   -5.446152|   -7.633373|    0.824013|    0.012003|
|         349|   -5.451377|   -7.637262|    0.824013|    0.012003|
|         350|   -5.456808|   -7.640739|    0.824014|    0.012004|
|         351|   -5.462440|   -7.643753|    0.824014|    0.012005|
|         352|   -5.468214|   -7.646271|    0.824014|    0.012005|
|         353|   -5.474040|   -7.648271|    0.824014|    0.012006|
|         354|   -5.479811|   -7.649749|    0.824015|    0.012006|
|         355|   -5.485427|   -7.650712|    0.824015|    0.012007|
|         356|   -5.490807|   -7.651180|    0.824015|    0.012007|
|         357|   -5.495897|   -7.651185|    0.824015|    0.012008|
|         358|   -5.500668|   -7.650762|    0.824016|    0.012008|
|         359|   -5.505110|   -7.649952|    0.824016|    0.012009|
|         360|   -5.509224|   -7.648801|    0.824016|    0.012010|
|         361|   -5.513011|   -7.647352|    0.824017|    0.012010|
|         362|   -5.516472|   -7.645651|    0.824017|    0.012011|
|         363|   -5.519597|   -7.643740|    0.824017|    0.012011|
|         364|   -5.522373|   -7.641662|    0.824017|    0.012012|
|         365|   -5.524786|   -7.639457|    0.824017|    0.012012|
|         366|   -5.526822|   -7.637167|    0.824017|    0.012013|
|         367|   -5.528472|   -7.634831|    0.824017|    0.012013|
|         368|   -5.529736|   -7.632487|    0.824017|    0.012014|
|         369|   -5.530622|   -7.630173|    0.824017|    0.012014|
|         370|   -5.531147|   -7.627926|    0.824017|    0.012014|
|         371|   -5.531334|   -7.625782|    0.824016|    0.012015|
|         372|   -5.531217|   -7.623776|    0.824016|    0.012015|
|         373|   -5.530831|   -7.621941|    0.824015|    0.012015|
|         374|   -5.530217|   -7.620308|    0.824015|    0.012016|
|         375|   -5.529419|   -7.618905|    0.824014|    0.012016|
|         376|   -5.528483|   -7.617759|    0.824013|    0.012016|
|         377|   -5.527455|   -7.616891|    0.824012|    0.012016|
|         378|   -5.526384|   -7.616320|    0.824011|    0.012016|
|         379|   -5.525316|   -7.616059|    0.824009|    0.012017|
|         380|   -5.524295|   -7.616118|    0.824008|    0.012017|
|         381|   -5.523363|   -7.616499|    0.824006|    0.012017|
|         382|   -5.522561|   -7.617201|    0.824005|    0.012017|
|         383|   -5.521921|   -7.618217|    0.824003|    0.012017|
|         384|   -5.521476|   -7.619532|    0.824001|    0.012017|
|         385|   -5.521251|   -7.621127|    0.823999|    0.012017|
|         386|   -5.521267|   -7.622979|    0.823998|    0.012017|
|         387|   -5.521539|   -7.625058|    0.823996|    0.012017|
|         388|   -5.522080|   -7.627333|    0.823994|    0.012017|
|         389|   -5.522895|   -7.629767|    0.823991|    0.012016|
|         390|   -5.523987|   -7.632323|    0.823989|    0.012016|
|         391|   -5.525353|   -7.634960|    0.823987|    0.012016|
|         392|   -5.526987|   -7.637641|    0.823985|    0.012016|
|         393|   -5.528879|   -7.640329|    0.823983|    0.012016|
|         394|   -5.531013|   -7.642990|    0.823981|    0.012015|
|         395|   -5.533373|   -7.645594|    0.823979|    0.012015|
|         396|   -5.535938|   -7.648118|    0.823977|    0.012015|
|         397|   -5.538682|   -7.650544|    0.823975|    0.012014|
|         398|   -5.541579|   -7.652860|    0.823973|    0.012014|
|         399|   -5.544600|   -7.655063|    0.823971|    0.012014|
|         400|   -5.547713|   -7.657154|    0.823969|    0.012013|
|         401|   -5.550885|   -7.659145|    0.823967|    0.012015|
+-----------------------------------------------------------------------+
|Fixed CL Mode                           |Value                         |
+-----------------------------------------------------------------------+
|Current CL                              |0.823967                      |
|Target CL                               |0.824                         |
|Previous AOA                            |2.78821                       |
|Changed AoA by                          |0.000155477                   |
+-----------------------------------------------------------------------+
+----------------------------------------------------------------+
|  Inner_Iter|    rms[Rho]|     rms[nu]|          CL|          CD|
+----------------------------------------------------------------+
|         402|   -4.001217|   -7.634578|    0.823965|    0.012015|
|         403|   -4.383075|   -7.649412|    0.823963|    0.012015|
|         404|   -4.623260|   -7.654944|    0.823962|    0.012014|
|         405|   -4.702856|   -7.658666|    0.823960|    0.012014|
|         406|   -4.757979|   -7.661826|    0.823959|    0.012013|
|         407|   -4.827919|   -7.664745|    0.823957|    0.012013|
|         408|   -4.912730|   -7.667533|    0.823956|    0.012013|
|         409|   -4.999343|   -7.670247|    0.823954|    0.012012|
|         410|   -5.071517|   -7.672923|    0.823953|    0.012012|
|         411|   -5.122035|   -7.675572|    0.823952|    0.012011|
|         412|   -5.153751|   -7.678211|    0.823951|    0.012011|
|         413|   -5.171302|   -7.680873|    0.823950|    0.012010|
|         414|   -5.178774|   -7.683605|    0.823949|    0.012010|
|         415|   -5.181479|   -7.686441|    0.823948|    0.012010|
|         416|   -5.185066|   -7.689388|    0.823947|    0.012009|
|         417|   -5.193194|   -7.692439|    0.823946|    0.012009|
|         418|   -5.206536|   -7.695587|    0.823945|    0.012009|
|         419|   -5.223322|   -7.698833|    0.823945|    0.012008|
|         420|   -5.240715|   -7.702184|    0.823944|    0.012008|
|         421|   -5.256430|   -7.705644|    0.823944|    0.012007|
|         422|   -5.269771|   -7.709209|    0.823943|    0.012007|
|         423|   -5.281454|   -7.712869|    0.823943|    0.012007|
|         424|   -5.292629|   -7.716607|    0.823942|    0.012007|
|         425|   -5.304014|   -7.720404|    0.823942|    0.012006|
|         426|   -5.315649|   -7.724245|    0.823942|    0.012006|
|         427|   -5.327116|   -7.728116|    0.823942|    0.012006|
|         428|   -5.337854|   -7.732007|    0.823941|    0.012006|
|         429|   -5.347378|   -7.735907|    0.823941|    0.012005|
|         430|   -5.355351|   -7.739813|    0.823941|    0.012005|
|         431|   -5.361635|   -7.743720|    0.823941|    0.012005|
|         432|   -5.366326|   -7.747629|    0.823941|    0.012005|
|         433|   -5.369769|   -7.751541|    0.823942|    0.012005|
|         434|   -5.372490|   -7.755459|    0.823942|    0.012005|
|         435|   -5.375068|   -7.759387|    0.823942|    0.012005|
|         436|   -5.377989|   -7.763329|    0.823942|    0.012005|
|         437|   -5.381554|   -7.767288|    0.823943|    0.012005|
|         438|   -5.385835|   -7.771275|    0.823943|    0.012005|
|         439|   -5.390691|   -7.775292|    0.823944|    0.012005|
|         440|   -5.395808|   -7.779347|    0.823944|    0.012005|
|         441|   -5.400777|   -7.783446|    0.823945|    0.012005|
|         442|   -5.405193|   -7.787595|    0.823945|    0.012005|
|         443|   -5.408760|   -7.791798|    0.823946|    0.012005|
|         444|   -5.411375|   -7.796060|    0.823947|    0.012005|
|         445|   -5.413149|   -7.800384|    0.823948|    0.012005|
|         446|   -5.414362|   -7.804772|    0.823948|    0.012005|
|         447|   -5.415381|   -7.809222|    0.823949|    0.012006|
|         448|   -5.416551|   -7.813732|    0.823950|    0.012006|
|         449|   -5.418123|   -7.818293|    0.823951|    0.012006|
|         450|   -5.420215|   -7.822896|    0.823952|    0.012006|
|         451|   -5.422816|   -7.827531|    0.823953|    0.012007|
|         452|   -5.425812|   -7.832183|    0.823954|    0.012007|
|         453|   -5.429036|   -7.836837|    0.823955|    0.012007|
|         454|   -5.432313|   -7.841480|    0.823956|    0.012007|
|         455|   -5.435501|   -7.846095|    0.823957|    0.012008|
|         456|   -5.438518|   -7.850666|    0.823958|    0.012008|
|         457|   -5.441348|   -7.855173|    0.823959|    0.012009|
|         458|   -5.444027|   -7.859596|    0.823960|    0.012009|
|         459|   -5.446631|   -7.863914|    0.823962|    0.012009|
|         460|   -5.449248|   -7.868106|    0.823963|    0.012010|
|         461|   -5.451958|   -7.872148|    0.823964|    0.012010|
|         462|   -5.454823|   -7.876015|    0.823965|    0.012010|
|         463|   -5.457882|   -7.879682|    0.823966|    0.012011|
|         464|   -5.461150|   -7.883122|    0.823967|    0.012011|
|         465|   -5.464626|   -7.886308|    0.823969|    0.012012|
|         466|   -5.468299|   -7.889214|    0.823970|    0.012012|
|         467|   -5.472150|   -7.891815|    0.823971|    0.012012|
|         468|   -5.476163|   -7.894087|    0.823972|    0.012013|
|         469|   -5.480321|   -7.896011|    0.823973|    0.012013|
|         470|   -5.484607|   -7.897573|    0.823974|    0.012014|
|         471|   -5.489007|   -7.898764|    0.823975|    0.012014|
|         472|   -5.493502|   -7.899576|    0.823975|    0.012014|
|         473|   -5.498072|   -7.900013|    0.823976|    0.012015|
|         474|   -5.502696|   -7.900090|    0.823977|    0.012015|
|         475|   -5.507347|   -7.899828|    0.823977|    0.012015|
|         476|   -5.511999|   -7.899255|    0.823978|    0.012016|
|         477|   -5.516624|   -7.898406|    0.823978|    0.012016|
|         478|   -5.521196|   -7.897320|    0.823978|    0.012016|
|         479|   -5.525691|   -7.896043|    0.823978|    0.012017|
|         480|   -5.530087|   -7.894625|    0.823978|    0.012017|
|         481|   -5.534367|   -7.893118|    0.823978|    0.012017|
|         482|   -5.538517|   -7.891579|    0.823978|    0.012017|
|         483|   -5.542526|   -7.890062|    0.823978|    0.012018|
|         484|   -5.546387|   -7.888626|    0.823977|    0.012018|
|         485|   -5.550096|   -7.887323|    0.823977|    0.012018|
|         486|   -5.553652|   -7.886206|    0.823976|    0.012018|
|         487|   -5.557055|   -7.885324|    0.823975|    0.012018|
|         488|   -5.560307|   -7.884727|    0.823974|    0.012018|
|         489|   -5.563412|   -7.884458|    0.823973|    0.012018|
|         490|   -5.566372|   -7.884556|    0.823972|    0.012019|
|         491|   -5.569191|   -7.885053|    0.823971|    0.012019|
|         492|   -5.571871|   -7.885975|    0.823969|    0.012019|
|         493|   -5.574413|   -7.887342|    0.823968|    0.012019|
|         494|   -5.576817|   -7.889168|    0.823966|    0.012019|
|         495|   -5.579081|   -7.891462|    0.823965|    0.012019|
|         496|   -5.581202|   -7.894223|    0.823963|    0.012019|
|         497|   -5.583175|   -7.897444|    0.823961|    0.012019|
|         498|   -5.584994|   -7.901110|    0.823960|    0.012019|
|         499|   -5.586652|   -7.905195|    0.823958|    0.012019|
|         500|   -5.588141|   -7.909668|    0.823956|    0.012018|
|         501|   -5.589453|   -7.914486|    0.823954|    0.012021|
+-----------------------------------------------------------------------+
|Fixed CL Mode                           |Value                         |
+-----------------------------------------------------------------------+
|Current CL                              |0.823954                      |
|Target CL                               |0.824                         |
|Previous AOA                            |2.78836                       |
|Changed AoA by                          |0.000219575                   |
+-----------------------------------------------------------------------+
+----------------------------------------------------------------+
|  Inner_Iter|    rms[Rho]|     rms[nu]|          CL|          CD|
+----------------------------------------------------------------+
|         502|   -3.851544|   -7.782285|    0.823952|    0.012021|
|         503|   -4.233956|   -7.843723|    0.823951|    0.012021|
|         504|   -4.473337|   -7.868203|    0.823949|    0.012021|
|         505|   -4.550960|   -7.884564|    0.823947|    0.012021|
|         506|   -4.605082|   -7.898127|    0.823945|    0.012021|
|         507|   -4.675055|   -7.910152|    0.823943|    0.012021|
|         508|   -4.761142|   -7.920990|    0.823941|    0.012020|
|         509|   -4.850942|   -7.930767|    0.823940|    0.012020|
|         510|   -4.928543|   -7.939492|    0.823938|    0.012020|
|         511|   -4.985825|   -7.947039|    0.823936|    0.012020|
|         512|   -5.024078|   -7.953309|    0.823935|    0.012019|
|         513|   -5.046646|   -7.958392|    0.823933|    0.012019|
|         514|   -5.057012|   -7.962501|    0.823932|    0.012019|
|         515|   -5.060882|   -7.965815|    0.823930|    0.012019|
|         516|   -5.064888|   -7.968388|    0.823929|    0.012018|
|         517|   -5.073549|   -7.970217|    0.823928|    0.012018|
|         518|   -5.087984|   -7.971329|    0.823927|    0.012018|
|         519|   -5.106504|   -7.971853|    0.823926|    0.012018|
|         520|   -5.126126|   -7.971964|    0.823925|    0.012017|
|         521|   -5.144360|   -7.971830|    0.823924|    0.012017|
|         522|   -5.160405|   -7.971569|    0.823923|    0.012017|
|         523|   -5.175017|   -7.971235|    0.823922|    0.012017|
|         524|   -5.189414|   -7.970842|    0.823922|    0.012016|
|         525|   -5.204286|   -7.970398|    0.823921|    0.012016|
|         526|   -5.219497|   -7.969920|    0.823921|    0.012016|
|         527|   -5.234354|   -7.969434|    0.823920|    0.012016|
|         528|   -5.248028|   -7.968969|    0.823920|    0.012015|
|         529|   -5.259856|   -7.968568|    0.823920|    0.012015|
|         530|   -5.269477|   -7.968258|    0.823920|    0.012015|
|         531|   -5.276871|   -7.968083|    0.823920|    0.012015|
|         532|   -5.282370|   -7.968050|    0.823920|    0.012015|
|         533|   -5.286623|   -7.968176|    0.823920|    0.012014|
|         534|   -5.290459|   -7.968466|    0.823921|    0.012014|
|         535|   -5.294702|   -7.968915|    0.823921|    0.012014|
|         536|   -5.299996|   -7.969501|    0.823922|    0.012014|
|         537|   -5.306699|   -7.970208|    0.823922|    0.012014|
|         538|   -5.314851|   -7.971017|    0.823923|    0.012014|
|         539|   -5.324187|   -7.971912|    0.823923|    0.012013|
|         540|   -5.334195|   -7.972879|    0.823924|    0.012013|
|         541|   -5.344205|   -7.973913|    0.823925|    0.012013|
|         542|   -5.353528|   -7.975020|    0.823926|    0.012013|
|         543|   -5.361629|   -7.976216|    0.823927|    0.012013|
|         544|   -5.368277|   -7.977523|    0.823928|    0.012013|
|         545|   -5.373609|   -7.978972|    0.823929|    0.012013|
|         546|   -5.378076|   -7.980591|    0.823930|    0.012013|
|         547|   -5.382297|   -7.982409|    0.823931|    0.012013|
|         548|   -5.386882|   -7.984429|    0.823932|    0.012013|
|         549|   -5.392299|   -7.986687|    0.823934|    0.012013|
|         550|   -5.398797|   -7.989204|    0.823935|    0.012013|
|         551|   -5.406396|   -7.991993|    0.823936|    0.012013|
|         552|   -5.414923|   -7.995062|    0.823938|    0.012013|
|         553|   -5.424081|   -7.998410|    0.823939|    0.012013|
|         554|   -5.433519|   -8.002037|    0.823941|    0.012014|
|         555|   -5.442915|   -8.005951|    0.823943|    0.012014|
|         556|   -5.452032|   -8.010153|    0.823944|    0.012014|
|         557|   -5.460750|   -8.014645|    0.823946|    0.012014|
|         558|   -5.469063|   -8.019427|    0.823948|    0.012014|
|         559|   -5.477055|   -8.024498|    0.823950|    0.012014|
|         560|   -5.484854|   -8.029862|    0.823951|    0.012014|
|         561|   -5.492590|   -8.035523|    0.823953|    0.012015|
|         562|   -5.500369|   -8.041492|    0.823955|    0.012015|
|         563|   -5.508247|   -8.047782|    0.823957|    0.012015|
|         564|   -5.516239|   -8.054404|    0.823959|    0.012015|
|         565|   -5.524320|   -8.061371|    0.823961|    0.012015|
|         566|   -5.532445|   -8.068696|    0.823963|    0.012016|
|         567|   -5.540558|   -8.076388|    0.823965|    0.012016|
|         568|   -5.548610|   -8.084450|    0.823967|    0.012016|
|         569|   -5.556558|   -8.092876|    0.823969|    0.012016|
|         570|   -5.564372|   -8.101647|    0.823971|    0.012017|
|         571|   -5.572028|   -8.110728|    0.823973|    0.012017|
|         572|   -5.579507|   -8.120058|    0.823975|    0.012017|
|         573|   -5.586788|   -8.129549|    0.823977|    0.012017|
|         574|   -5.593851|   -8.139077|    0.823979|    0.012017|
|         575|   -5.600669|   -8.148480|    0.823981|    0.012018|
|         576|   -5.607216|   -8.157554|    0.823982|    0.012018|
|         577|   -5.613468|   -8.166063|    0.823984|    0.012018|
|         578|   -5.619402|   -8.173741|    0.823985|    0.012018|
|         579|   -5.625004|   -8.180308|    0.823986|    0.012019|
|         580|   -5.630268|   -8.185497|    0.823987|    0.012019|
|         581|   -5.635197|   -8.189075|    0.823988|    0.012019|
|         582|   -5.639804|   -8.190874|    0.823989|    0.012019|
|         583|   -5.644111|   -8.190817|    0.823990|    0.012019|
|         584|   -5.648148|   -8.188927|    0.823990|    0.012019|
|         585|   -5.651950|   -8.185333|    0.823991|    0.012020|
|         586|   -5.655560|   -8.180259|    0.823991|    0.012020|
|         587|   -5.659021|   -8.174000|    0.823991|    0.012020|
|         588|   -5.662380|   -8.166894|    0.823991|    0.012020|
|         589|   -5.665684|   -8.159297|    0.823991|    0.012020|
|         590|   -5.668977|   -8.151559|    0.823991|    0.012020|
|         591|   -5.672304|   -8.144007|    0.823990|    0.012020|
|         592|   -5.675703|   -8.136932|    0.823990|    0.012020|
|         593|   -5.679210|   -8.130590|    0.823989|    0.012020|
|         594|   -5.682853|   -8.125193|    0.823988|    0.012020|
|         595|   -5.686656|   -8.120916|    0.823987|    0.012020|
|         596|   -5.690636|   -8.117900|    0.823986|    0.012020|
|         597|   -5.694805|   -8.116251|    0.823985|    0.012021|
|         598|   -5.699167|   -8.116045|    0.823984|    0.012021|
|         599|   -5.703721|   -8.117329|    0.823983|    0.012021|
|         600|   -5.708460|   -8.120123|    0.823981|    0.012020|
|         601|   -5.713373|   -8.124416|    0.823980|    0.012022|
+-----------------------------------------------------------------------+
|Fixed CL Mode                           |Value                         |
+-----------------------------------------------------------------------+
|Current CL                              |0.82398                       |
|Target CL                               |0.824                         |
|Previous AOA                            |2.78858                       |
|Changed AoA by                          |9.30435e-05                   |
+-----------------------------------------------------------------------+
+----------------------------------------------------------------+
|  Inner_Iter|    rms[Rho]|     rms[nu]|          CL|          CD|
+----------------------------------------------------------------+
|         602|   -4.224281|   -8.051546|    0.823979|    0.012022|
|         603|   -4.604739|   -8.091924|    0.823977|    0.012022|
|         604|   -4.837642|   -8.111015|    0.823976|    0.012022|
|         605|   -4.910857|   -8.126497|    0.823974|    0.012022|
|         606|   -4.962640|   -8.141166|    0.823972|    0.012021|
|         607|   -5.030184|   -8.155491|    0.823971|    0.012021|
|         608|   -5.113151|   -8.169404|    0.823969|    0.012021|
|         609|   -5.199776|   -8.182686|    0.823968|    0.012021|
|         610|   -5.275851|   -8.194954|    0.823966|    0.012021|
|         611|   -5.334423|   -8.205644|    0.823965|    0.012021|
|         612|   -5.376302|   -8.214143|    0.823963|    0.012021|
|         613|   -5.403526|   -8.219971|    0.823962|    0.012021|
|         614|   -5.418237|   -8.222823|    0.823960|    0.012020|
|         615|   -5.425209|   -8.222540|    0.823959|    0.012020|
|         616|   -5.430856|   -8.219116|    0.823958|    0.012020|
|         617|   -5.439971|   -8.212724|    0.823956|    0.012020|
|         618|   -5.454100|   -8.203750|    0.823955|    0.012020|
|         619|   -5.471995|   -8.192738|    0.823954|    0.012019|
|         620|   -5.491105|   -8.180296|    0.823953|    0.012019|
|         621|   -5.509283|   -8.167006|    0.823952|    0.012019|
|         622|   -5.525863|   -8.153357|    0.823951|    0.012019|
|         623|   -5.541494|   -8.139742|    0.823950|    0.012019|
|         624|   -5.557130|   -8.126464|    0.823950|    0.012018|
|         625|   -5.573134|   -8.113759|    0.823949|    0.012018|
|         626|   -5.589047|   -8.101806|    0.823948|    0.012018|
|         627|   -5.603901|   -8.090739|    0.823948|    0.012018|
|         628|   -5.616701|   -8.080652|    0.823947|    0.012018|
|         629|   -5.626790|   -8.071603|    0.823947|    0.012018|
|         630|   -5.633985|   -8.063625|    0.823947|    0.012017|
|         631|   -5.638563|   -8.056722|    0.823947|    0.012017|
|         632|   -5.641167|   -8.050878|    0.823946|    0.012017|
|         633|   -5.642671|   -8.046057|    0.823946|    0.012017|
|         634|   -5.643996|   -8.042207|    0.823946|    0.012017|
|         635|   -5.645930|   -8.039262|    0.823947|    0.012016|
|         636|   -5.648994|   -8.037144|    0.823947|    0.012016|
|         637|   -5.653389|   -8.035770|    0.823947|    0.012016|
|         638|   -5.659005|   -8.035052|    0.823947|    0.012016|
|         639|   -5.665467|   -8.034897|    0.823948|    0.012016|
|         640|   -5.672224|   -8.035215|    0.823948|    0.012016|
|         641|   -5.678646|   -8.035916|    0.823948|    0.012016|
|         642|   -5.684168|   -8.036916|    0.823949|    0.012016|
|         643|   -5.688424|   -8.038133|    0.823949|    0.012015|
|         644|   -5.691343|   -8.039495|    0.823950|    0.012015|
|         645|   -5.693165|   -8.040937|    0.823951|    0.012015|
|         646|   -5.694355|   -8.042401|    0.823951|    0.012015|
|         647|   -5.695468|   -8.043838|    0.823952|    0.012015|
|         648|   -5.697008|   -8.045209|    0.823953|    0.012015|
|         649|   -5.699337|   -8.046483|    0.823953|    0.012015|
|         650|   -5.702627|   -8.047634|    0.823954|    0.012015|
|         651|   -5.706869|   -8.048648|    0.823955|    0.012015|
|         652|   -5.711920|   -8.049515|    0.823955|    0.012015|
|         653|   -5.717551|   -8.050230|    0.823956|    0.012015|
|         654|   -5.723518|   -8.050793|    0.823957|    0.012015|
|         655|   -5.729611|   -8.051206|    0.823958|    0.012015|
|         656|   -5.735687|   -8.051477|    0.823958|    0.012015|
|         657|   -5.741690|   -8.051616|    0.823959|    0.012015|
|         658|   -5.747636|   -8.051630|    0.823960|    0.012015|
|         659|   -5.753593|   -8.051530|    0.823961|    0.012015|
|         660|   -5.759650|   -8.051326|    0.823961|    0.012015|
|         661|   -5.765890|   -8.051029|    0.823962|    0.012015|
|         662|   -5.772371|   -8.050653|    0.823963|    0.012015|
|         663|   -5.779118|   -8.050212|    0.823964|    0.012015|
|         664|   -5.786124|   -8.049723|    0.823965|    0.012015|
|         665|   -5.793359|   -8.049208|    0.823966|    0.012015|
|         666|   -5.800774|   -8.048690|    0.823966|    0.012016|
|         667|   -5.808318|   -8.048193|    0.823967|    0.012016|
|         668|   -5.815938|   -8.047747|    0.823968|    0.012016|
|         669|   -5.823590|   -8.047382|    0.823969|    0.012016|
|         670|   -5.831233|   -8.047127|    0.823970|    0.012016|
|         671|   -5.838830|   -8.047013|    0.823971|    0.012016|
|         672|   -5.846346|   -8.047067|    0.823971|    0.012016|
|         673|   -5.853747|   -8.047312|    0.823972|    0.012016|
|         674|   -5.860993|   -8.047770|    0.823973|    0.012016|
|         675|   -5.868044|   -8.048451|    0.823974|    0.012016|
|         676|   -5.874859|   -8.049362|    0.823974|    0.012017|
|         677|   -5.881396|   -8.050500|    0.823975|    0.012017|
|         678|   -5.887618|   -8.051853|    0.823976|    0.012017|
|         679|   -5.893494|   -8.053399|    0.823976|    0.012017|
|         680|   -5.898999|   -8.055107|    0.823977|    0.012017|
|         681|   -5.904118|   -8.056940|    0.823977|    0.012017|
|         682|   -5.908846|   -8.058850|    0.823978|    0.012017|
|         683|   -5.913187|   -8.060785|    0.823978|    0.012017|
|         684|   -5.917158|   -8.062690|    0.823979|    0.012018|
|         685|   -5.920779|   -8.064509|    0.823979|    0.012018|
|         686|   -5.924084|   -8.066189|    0.823979|    0.012018|
|         687|   -5.927107|   -8.067682|    0.823979|    0.012018|
|         688|   -5.929891|   -8.068948|    0.823979|    0.012018|
|         689|   -5.932480|   -8.069960|    0.823979|    0.012018|
|         690|   -5.934918|   -8.070706|    0.823979|    0.012018|
|         691|   -5.937252|   -8.071186|    0.823979|    0.012018|
|         692|   -5.939523|   -8.071420|    0.823979|    0.012019|
|         693|   -5.941771|   -8.071439|    0.823979|    0.012019|
|         694|   -5.944034|   -8.071291|    0.823979|    0.012019|
|         695|   -5.946342|   -8.071033|    0.823979|    0.012019|
|         696|   -5.948723|   -8.070731|    0.823978|    0.012019|
|         697|   -5.951199|   -8.070455|    0.823978|    0.012019|
|         698|   -5.953786|   -8.070278|    0.823978|    0.012019|
|         699|   -5.956497|   -8.070270|    0.823977|    0.012019|
|         700|   -5.959339|   -8.070494|    0.823977|    0.012019|
|         701|   -5.962317|   -8.071008|    0.823976|    0.012021|
+-----------------------------------------------------------------------+
|Fixed CL Mode                           |Value                         |
+-----------------------------------------------------------------------+
|Current CL                              |0.823976                      |
|Target CL                               |0.824                         |
|Previous AOA                            |2.78867                       |
|Changed AoA by                          |0.000117151                   |
+-----------------------------------------------------------------------+
+----------------------------------------------------------------+
|  Inner_Iter|    rms[Rho]|     rms[nu]|          CL|          CD|
+----------------------------------------------------------------+
|         702|   -4.124569|   -7.982788|    0.823975|    0.012021|
|         703|   -4.507976|   -8.023754|    0.823975|    0.012021|
|         704|   -4.748428|   -8.038400|    0.823974|    0.012021|
|         705|   -4.824987|   -8.047730|    0.823974|    0.012021|
|         706|   -4.877773|   -8.055375|    0.823973|    0.012021|
|         707|   -4.946781|   -8.062220|    0.823972|    0.012021|
|         708|   -5.032359|   -8.068562|    0.823972|    0.012021|
|         709|   -5.122358|   -8.074573|    0.823971|    0.012021|
|         710|   -5.201195|   -8.080346|    0.823970|    0.012021|
|         711|   -5.260711|   -8.085850|    0.823970|    0.012021|
|         712|   -5.301736|   -8.091037|    0.823969|    0.012021|
|         713|   -5.327024|   -8.095934|    0.823968|    0.012021|
|         714|   -5.339585|   -8.100605|    0.823968|    0.012021|
|         715|   -5.345013|   -8.105082|    0.823967|    0.012021|
|         716|   -5.350205|   -8.109321|    0.823966|    0.012021|
|         717|   -5.360039|   -8.113238|    0.823966|    0.012021|
|         718|   -5.375892|   -8.116764|    0.823965|    0.012021|
|         719|   -5.396176|   -8.119882|    0.823965|    0.012021|
|         720|   -5.417880|   -8.122614|    0.823964|    0.012021|
|         721|   -5.438424|   -8.124986|    0.823964|    0.012020|
|         722|   -5.456961|   -8.127012|    0.823963|    0.012020|
|         723|   -5.474295|   -8.128683|    0.823963|    0.012020|
|         724|   -5.491731|   -8.129987|    0.823963|    0.012020|
|         725|   -5.509977|   -8.130921|    0.823962|    0.012020|
|         726|   -5.528785|   -8.131505|    0.823962|    0.012020|
|         727|   -5.547215|   -8.131780|    0.823962|    0.012020|
|         728|   -5.564122|   -8.131805|    0.823961|    0.012020|
|         729|   -5.578558|   -8.131645|    0.823961|    0.012019|
|         730|   -5.589983|   -8.131371|    0.823961|    0.012019|
|         731|   -5.598364|   -8.131044|    0.823961|    0.012019|
|         732|   -5.604191|   -8.130724|    0.823961|    0.012019|
|         733|   -5.608384|   -8.130451|    0.823961|    0.012019|
|         734|   -5.612088|   -8.130253|    0.823961|    0.012019|
|         735|   -5.616403|   -8.130143|    0.823961|    0.012019|
|         736|   -5.622161|   -8.130120|    0.823961|    0.012018|
|         737|   -5.629809|   -8.130167|    0.823961|    0.012018|
|         738|   -5.639376|   -8.130262|    0.823961|    0.012018|
|         739|   -5.650497|   -8.130382|    0.823961|    0.012018|
|         740|   -5.662478|   -8.130498|    0.823961|    0.012018|
|         741|   -5.674397|   -8.130585|    0.823962|    0.012018|
|         742|   -5.685294|   -8.130619|    0.823962|    0.012018|
|         743|   -5.694405|   -8.130576|    0.823962|    0.012018|
|         744|   -5.701388|   -8.130447|    0.823963|    0.012017|
|         745|   -5.706428|   -8.130219|    0.823963|    0.012017|
|         746|   -5.710155|   -8.129885|    0.823963|    0.012017|
|         747|   -5.713430|   -8.129440|    0.823964|    0.012017|
|         748|   -5.717097|   -8.128883|    0.823964|    0.012017|
|         749|   -5.721794|   -8.128207|    0.823965|    0.012017|
|         750|   -5.727867|   -8.127414|    0.823965|    0.012017|
|         751|   -5.735365|   -8.126506|    0.823966|    0.012017|
|         752|   -5.744088|   -8.125483|    0.823966|    0.012017|
|         753|   -5.753676|   -8.124354|    0.823967|    0.012017|
|         754|   -5.763706|   -8.123124|    0.823967|    0.012016|
|         755|   -5.773786|   -8.121804|    0.823968|    0.012016|
|         756|   -5.783634|   -8.120415|    0.823969|    0.012016|
|         757|   -5.793119|   -8.118980|    0.823970|    0.012016|
|         758|   -5.802259|   -8.117523|    0.823970|    0.012016|
|         759|   -5.811187|   -8.116074|    0.823971|    0.012016|
|         760|   -5.820097|   -8.114663|    0.823972|    0.012016|
|         761|   -5.829189|   -8.113327|    0.823973|    0.012016|
|         762|   -5.838624|   -8.112107|    0.823974|    0.012016|
|         763|   -5.848507|   -8.111042|    0.823975|    0.012016|
|         764|   -5.858880|   -8.110177|    0.823976|    0.012016|
|         765|   -5.869736|   -8.109556|    0.823977|    0.012016|
|         766|   -5.881033|   -8.109220|    0.823978|    0.012016|
|         767|   -5.892715|   -8.109208|    0.823979|    0.012016|
|         768|   -5.904725|   -8.109553|    0.823980|    0.012016|
|         769|   -5.917011|   -8.110283|    0.823981|    0.012016|
|         770|   -5.929531|   -8.111418|    0.823982|    0.012016|
|         771|   -5.942249|   -8.112967|    0.823983|    0.012016|
|         772|   -5.955124|   -8.114929|    0.823984|    0.012016|
|         773|   -5.968111|   -8.117290|    0.823985|    0.012016|
|         774|   -5.981148|   -8.120025|    0.823986|    0.012017|
|         775|   -5.994155|   -8.123093|    0.823987|    0.012017|
|         776|   -6.007039|   -8.126440|    0.823988|    0.012017|
|         777|   -6.019688|   -8.129999|    0.823989|    0.012017|
|         778|   -6.031985|   -8.133690|    0.823989|    0.012017|
|         779|   -6.043807|   -8.137425|    0.823990|    0.012017|
|         780|   -6.055035|   -8.141108|    0.823991|    0.012017|
|         781|   -6.065560|   -8.144640|    0.823991|    0.012017|
|         782|   -6.075287|   -8.147923|    0.823992|    0.012017|
|         783|   -6.084146|   -8.150866|    0.823992|    0.012017|
|         784|   -6.092089|   -8.153394|    0.823993|    0.012017|
|         785|   -6.099096|   -8.155445|    0.823993|    0.012017|
|         786|   -6.105178|   -8.156984|    0.823993|    0.012017|
|         787|   -6.110372|   -8.157996|    0.823994|    0.012017|
|         788|   -6.114741|   -8.158496|    0.823994|    0.012017|
|         789|   -6.118367|   -8.158524|    0.823994|    0.012018|
|         790|   -6.121351|   -8.158143|    0.823994|    0.012018|
|         791|   -6.123799|   -8.157433|    0.823994|    0.012018|
|         792|   -6.125825|   -8.156492|    0.823993|    0.012018|
|         793|   -6.127538|   -8.155425|    0.823993|    0.012018|
|         794|   -6.129043|   -8.154339|    0.823993|    0.012018|
|         795|   -6.130435|   -8.153340|    0.823993|    0.012018|
|         796|   -6.131801|   -8.152528|    0.823992|    0.012018|
|         797|   -6.133212|   -8.151995|    0.823992|    0.012018|
|         798|   -6.134729|   -8.151818|    0.823991|    0.012018|
|         799|   -6.136402|   -8.152061|    0.823991|    0.012018|
|         800|   -6.138269|   -8.152773|    0.823990|    0.012018|
|         801|   -6.140359|   -8.153988|    0.823990|    0.012019|
+-----------------------------------------------------------------------+
|Fixed CL Mode                           |Value                         |
+-----------------------------------------------------------------------+
|Current CL                              |0.82399                       |
|Target CL                               |0.824                         |
|Previous AOA                            |2.78879                       |
|Changed AoA by                          |4.87156e-05                   |
+-----------------------------------------------------------------------+
+----------------------------------------------------------------+
|  Inner_Iter|    rms[Rho]|     rms[nu]|          CL|          CD|
+----------------------------------------------------------------+
|         802|   -4.505582|   -8.128949|    0.823989|    0.012019|
|         803|   -4.888070|   -8.143923|    0.823988|    0.012019|
|         804|   -5.125347|   -8.150590|    0.823988|    0.012019|
|         805|   -5.199618|   -8.155984|    0.823987|    0.012019|
|         806|   -5.251048|   -8.161156|    0.823986|    0.012019|
|         807|   -5.318526|   -8.166319|    0.823986|    0.012019|
|         808|   -5.402039|   -8.171513|    0.823985|    0.012019|
|         809|   -5.489724|   -8.176734|    0.823984|    0.012019|
|         810|   -5.566974|   -8.181946|    0.823984|    0.012019|
|         811|   -5.626470|   -8.187074|    0.823983|    0.012019|
|         812|   -5.668983|   -8.192035|    0.823982|    0.012019|
|         813|   -5.696651|   -8.196767|    0.823981|    0.012019|
|         814|   -5.711708|   -8.201224|    0.823981|    0.012019|
|         815|   -5.719094|   -8.205357|    0.823980|    0.012019|
|         816|   -5.725442|   -8.209113|    0.823980|    0.012019|
|         817|   -5.735722|   -8.212438|    0.823979|    0.012019|
|         818|   -5.751563|   -8.215304|    0.823978|    0.012019|
|         819|   -5.771695|   -8.217713|    0.823978|    0.012019|
|         820|   -5.793451|   -8.219690|    0.823977|    0.012019|
|         821|   -5.814553|   -8.221279|    0.823977|    0.012019|
|         822|   -5.834308|   -8.222526|    0.823976|    0.012019|
|         823|   -5.853493|   -8.223485|    0.823976|    0.012019|
|         824|   -5.873272|   -8.224211|    0.823976|    0.012019|
|         825|   -5.894155|   -8.224769|    0.823975|    0.012019|
|         826|   -5.915651|   -8.225228|    0.823975|    0.012019|
|         827|   -5.936536|   -8.225662|    0.823975|    0.012019|
|         828|   -5.955378|   -8.226145|    0.823975|    0.012019|
|         829|   -5.971024|   -8.226749|    0.823974|    0.012019|
|         830|   -5.982894|   -8.227538|    0.823974|    0.012019|
|         831|   -5.991088|   -8.228567|    0.823974|    0.012019|
|         832|   -5.996346|   -8.229877|    0.823974|    0.012019|
|         833|   -5.999858|   -8.231501|    0.823974|    0.012019|
|         834|   -6.002969|   -8.233454|    0.823974|    0.012019|
|         835|   -6.006876|   -8.235741|    0.823974|    0.012019|
|         836|   -6.012406|   -8.238353|    0.823974|    0.012019|
|         837|   -6.019921|   -8.241271|    0.823974|    0.012019|
|         838|   -6.029318|   -8.244466|    0.823974|    0.012019|
|         839|   -6.040070|   -8.247903|    0.823974|    0.012019|
|         840|   -6.051313|   -8.251544|    0.823974|    0.012019|
|         841|   -6.061987|   -8.255348|    0.823974|    0.012019|
|         842|   -6.071050|   -8.259271|    0.823975|    0.012018|
|         843|   -6.077754|   -8.263273|    0.823975|    0.012018|
|         844|   -6.081864|   -8.267315|    0.823975|    0.012018|
|         845|   -6.083723|   -8.271361|    0.823975|    0.012018|
|         846|   -6.084114|   -8.275375|    0.823975|    0.012018|
|         847|   -6.083995|   -8.279330|    0.823976|    0.012018|
|         848|   -6.084238|   -8.283198|    0.823976|    0.012018|
|         849|   -6.085460|   -8.286953|    0.823976|    0.012018|
|         850|   -6.087964|   -8.290577|    0.823976|    0.012018|
|         851|   -6.091755|   -8.294049|    0.823977|    0.012018|
|         852|   -6.096620|   -8.297354|    0.823977|    0.012018|
|         853|   -6.102216|   -8.300475|    0.823977|    0.012018|
|         854|   -6.108178|   -8.303399|    0.823977|    0.012018|
|         855|   -6.114193|   -8.306112|    0.823978|    0.012018|
|         856|   -6.120070|   -8.308597|    0.823978|    0.012017|
|         857|   -6.125755|   -8.310846|    0.823978|    0.012017|
|         858|   -6.131318|   -8.312852|    0.823979|    0.012017|
|         859|   -6.136915|   -8.314606|    0.823979|    0.012017|
|         860|   -6.142736|   -8.316106|    0.823979|    0.012017|
|         861|   -6.148963|   -8.317350|    0.823980|    0.012017|
|         862|   -6.155742|   -8.318346|    0.823980|    0.012017|
|         863|   -6.163167|   -8.319102|    0.823980|    0.012017|
|         864|   -6.171283|   -8.319639|    0.823981|    0.012017|
|         865|   -6.180101|   -8.319982|    0.823981|    0.012017|
|         866|   -6.189606|   -8.320165|    0.823982|    0.012017|
|         867|   -6.199779|   -8.320227|    0.823982|    0.012017|
|         868|   -6.210601|   -8.320214|    0.823982|    0.012017|
|         869|   -6.222063|   -8.320177|    0.823983|    0.012017|
|         870|   -6.234163|   -8.320168|    0.823983|    0.012017|
|         871|   -6.246905|   -8.320241|    0.823984|    0.012017|
|         872|   -6.260292|   -8.320446|    0.823984|    0.012017|
|         873|   -6.274323|   -8.320833|    0.823984|    0.012017|
|         874|   -6.288984|   -8.321444|    0.823985|    0.012016|
|         875|   -6.304247|   -8.322313|    0.823985|    0.012016|
|         876|   -6.320067|   -8.323467|    0.823986|    0.012016|
|         877|   -6.336378|   -8.324919|    0.823986|    0.012016|
|         878|   -6.353094|   -8.326674|    0.823986|    0.012016|
|         879|   -6.370112|   -8.328722|    0.823987|    0.012016|
|         880|   -6.387304|   -8.331041|    0.823987|    0.012016|
|         881|   -6.404523|   -8.333597|    0.823987|    0.012016|
|         882|   -6.421603|   -8.336345|    0.823988|    0.012016|
|         883|   -6.438359|   -8.339230|    0.823988|    0.012016|
|         884|   -6.454591|   -8.342187|    0.823988|    0.012016|
|         885|   -6.470092|   -8.345147|    0.823988|    0.012016|
|         886|   -6.484655|   -8.348037|    0.823988|    0.012016|
|         887|   -6.498081|   -8.350787|    0.823989|    0.012016|
|         888|   -6.510197|   -8.353330|    0.823989|    0.012016|
|         889|   -6.520862|   -8.355609|    0.823989|    0.012016|
|         890|   -6.529984|   -8.357580|    0.823989|    0.012016|
|         891|   -6.537518|   -8.359215|    0.823989|    0.012016|
|         892|   -6.543479|   -8.360504|    0.823989|    0.012016|
|         893|   -6.547929|   -8.361457|    0.823989|    0.012016|
|         894|   -6.550978|   -8.362101|    0.823989|    0.012017|
|         895|   -6.552769|   -8.362482|    0.823989|    0.012017|
|         896|   -6.553469|   -8.362658|    0.823989|    0.012017|
|         897|   -6.553258|   -8.362698|    0.823989|    0.012017|
|         898|   -6.552316|   -8.362681|    0.823989|    0.012017|
|         899|   -6.550818|   -8.362684|    0.823989|    0.012017|
|         900|   -6.548927|   -8.362785|    0.823989|    0.012017|
|         901|   -6.546793|   -8.363057|    0.823989|    0.012018|
+-----------------------------------------------------------------------+
|Fixed CL Mode                           |Value                         |
+-----------------------------------------------------------------------+
|Current CL                              |0.823989                      |
|Target CL                               |0.824                         |
|Previous AOA                            |2.78884                       |
[...]
|        5298|   -6.036610|   -7.976631|    0.824237|    0.012021|
|        5299|   -6.043304|   -7.980460|    0.824237|    0.012021|
|        5300|   -6.049607|   -7.984347|    0.824237|    0.012020|
|        5301|   -6.055481|   -7.988307|    0.824237|    0.012020|
|        5302|   -6.060899|   -7.992357|    0.824237|    0.012020|
|        5303|   -6.065842|   -7.996506|    0.824237|    0.012020|
|        5304|   -6.070307|   -8.000763|    0.824237|    0.012020|
|        5305|   -6.074302|   -8.005135|    0.824237|    0.012020|
|        5306|   -6.077846|   -8.009625|    0.824238|    0.012020|
|        5307|   -6.080968|   -8.014235|    0.824238|    0.012020|
|        5308|   -6.083706|   -8.018967|    0.824238|    0.012020|
|        5309|   -6.086107|   -8.023820|    0.824238|    0.012020|
|        5310|   -6.088223|   -8.028796|    0.824238|    0.012020|
|        5311|   -6.090109|   -8.033895|    0.824238|    0.012020|
|        5312|   -6.091822|   -8.039117|    0.824238|    0.012020|
|        5313|   -6.093418|   -8.044463|    0.824238|    0.012020|
|        5314|   -6.094954|   -8.049936|    0.824238|    0.012020|
|        5315|   -6.096482|   -8.055538|    0.824239|    0.012020|
|        5316|   -6.098051|   -8.061273|    0.824239|    0.012020|
|        5317|   -6.099705|   -8.067144|    0.824239|    0.012020|
|        5318|   -6.101483|   -8.073157|    0.824239|    0.012020|
|        5319|   -6.103416|   -8.079313|    0.824239|    0.012020|
|        5320|   -6.105532|   -8.085619|    0.824239|    0.012020|
|        5321|   -6.107848|   -8.092075|    0.824239|    0.012021|
|        5322|   -6.110380|   -8.098686|    0.824240|    0.012021|
|        5323|   -6.113131|   -8.105450|    0.824240|    0.012021|
|        5324|   -6.116103|   -8.112368|    0.824240|    0.012021|
|        5325|   -6.119287|   -8.119436|    0.824240|    0.012021|
|        5326|   -6.122671|   -8.126649|    0.824240|    0.012021|
|        5327|   -6.126236|   -8.134002|    0.824240|    0.012021|
|        5328|   -6.129957|   -8.141484|    0.824241|    0.012021|
|        5329|   -6.133804|   -8.149085|    0.824241|    0.012021|
|        5330|   -6.137743|   -8.156791|    0.824241|    0.012021|
|        5331|   -6.141738|   -8.164590|    0.824241|    0.012021|
|        5332|   -6.145749|   -8.172464|    0.824241|    0.012021|
|        5333|   -6.149734|   -8.180398|    0.824241|    0.012022|
|        5334|   -6.153653|   -8.188374|    0.824241|    0.012022|
|        5335|   -6.157466|   -8.196376|    0.824242|    0.012022|
|        5336|   -6.161135|   -8.204386|    0.824242|    0.012022|
|        5337|   -6.164627|   -8.212389|    0.824242|    0.012022|
|        5338|   -6.167915|   -8.220370|    0.824242|    0.012022|
|        5339|   -6.170976|   -8.228317|    0.824242|    0.012022|
|        5340|   -6.173796|   -8.236218|    0.824242|    0.012022|
|        5341|   -6.176367|   -8.244066|    0.824242|    0.012022|
|        5342|   -6.178690|   -8.251853|    0.824242|    0.012022|
|        5343|   -6.180776|   -8.259576|    0.824243|    0.012022|
|        5344|   -6.182640|   -8.267233|    0.824243|    0.012022|
|        5345|   -6.184307|   -8.274825|    0.824243|    0.012022|
|        5346|   -6.185806|   -8.282356|    0.824243|    0.012023|
|        5347|   -6.187173|   -8.289830|    0.824243|    0.012023|
|        5348|   -6.188447|   -8.297254|    0.824243|    0.012023|
|        5349|   -6.189668|   -8.304636|    0.824243|    0.012023|
|        5350|   -6.190879|   -8.311985|    0.824243|    0.012023|
|        5351|   -6.192123|   -8.319310|    0.824243|    0.012023|
|        5352|   -6.193442|   -8.326620|    0.824243|    0.012023|
|        5353|   -6.194876|   -8.333926|    0.824243|    0.012023|
|        5354|   -6.196463|   -8.341234|    0.824244|    0.012023|
|        5355|   -6.198236|   -8.348552|    0.824244|    0.012023|
|        5356|   -6.200227|   -8.355887|    0.824244|    0.012023|
|        5357|   -6.202462|   -8.363244|    0.824244|    0.012023|
|        5358|   -6.204963|   -8.370624|    0.824244|    0.012023|
|        5359|   -6.207747|   -8.378028|    0.824244|    0.012023|
|        5360|   -6.210828|   -8.385456|    0.824244|    0.012023|
|        5361|   -6.214214|   -8.392903|    0.824244|    0.012023|
|        5362|   -6.217906|   -8.400362|    0.824244|    0.012023|
|        5363|   -6.221905|   -8.407827|    0.824244|    0.012023|
|        5364|   -6.226202|   -8.415286|    0.824244|    0.012023|
|        5365|   -6.230787|   -8.422728|    0.824244|    0.012023|
|        5366|   -6.235642|   -8.430137|    0.824244|    0.012023|
|        5367|   -6.240746|   -8.437499|    0.824244|    0.012023|
|        5368|   -6.246074|   -8.444794|    0.824244|    0.012023|
|        5369|   -6.251594|   -8.452005|    0.824244|    0.012023|
|        5370|   -6.257271|   -8.459111|    0.824244|    0.012023|
|        5371|   -6.263068|   -8.466089|    0.824244|    0.012023|
|        5372|   -6.268941|   -8.472919|    0.824244|    0.012023|
|        5373|   -6.274846|   -8.479576|    0.824244|    0.012023|
|        5374|   -6.280735|   -8.486037|    0.824244|    0.012023|
|        5375|   -6.286561|   -8.492281|    0.824244|    0.012022|
|        5376|   -6.292275|   -8.498284|    0.824244|    0.012022|
|        5377|   -6.297829|   -8.504026|    0.824244|    0.012022|
|        5378|   -6.303177|   -8.509486|    0.824244|    0.012022|
|        5379|   -6.308276|   -8.514644|    0.824244|    0.012022|
|        5380|   -6.313089|   -8.519484|    0.824244|    0.012022|
|        5381|   -6.317582|   -8.523988|    0.824244|    0.012022|
|        5382|   -6.321729|   -8.528140|    0.824244|    0.012022|
|        5383|   -6.325509|   -8.531927|    0.824244|    0.012022|
|        5384|   -6.328910|   -8.535334|    0.824244|    0.012022|
|        5385|   -6.331926|   -8.538350|    0.824244|    0.012022|
|        5386|   -6.334558|   -8.540962|    0.824244|    0.012022|
|        5387|   -6.336815|   -8.543160|    0.824244|    0.012021|
|        5388|   -6.338711|   -8.544933|    0.824244|    0.012021|
|        5389|   -6.340264|   -8.546272|    0.824244|    0.012021|
|        5390|   -6.341497|   -8.547167|    0.824244|    0.012021|
|        5391|   -6.342436|   -8.547613|    0.824244|    0.012021|
|        5392|   -6.343109|   -8.547602|    0.824244|    0.012021|
|        5393|   -6.343542|   -8.547131|    0.824245|    0.012021|
|        5394|   -6.343764|   -8.546197|    0.824245|    0.012021|
|        5395|   -6.343802|   -8.544803|    0.824245|    0.012021|
|        5396|   -6.343680|   -8.542952|    0.824245|    0.012021|
|        5397|   -6.343423|   -8.540654|    0.824245|    0.012020|
|        5398|   -6.343050|   -8.537920|    0.824245|    0.012020|
|        5399|   -6.342580|   -8.534768|    0.824246|    0.012020|
|        5400|   -6.342028|   -8.531220|    0.824246|    0.012020|
|        5401|   -6.341409|   -8.527302|    0.824246|    0.012020|
|        5402|   -6.340731|   -8.523045|    0.824246|    0.012020|
|        5403|   -6.340006|   -8.518482|    0.824246|    0.012020|
|        5404|   -6.339238|   -8.513651|    0.824247|    0.012020|
|        5405|   -6.338435|   -8.508592|    0.824247|    0.012020|
|        5406|   -6.337601|   -8.503347|    0.824247|    0.012020|
|        5407|   -6.336739|   -8.497961|    0.824247|    0.012020|
|        5408|   -6.335851|   -8.492476|    0.824247|    0.012019|
|        5409|   -6.334940|   -8.486936|    0.824248|    0.012019|
|        5410|   -6.334009|   -8.481379|    0.824248|    0.012019|
|        5411|   -6.333059|   -8.475844|    0.824248|    0.012019|
|        5412|   -6.332094|   -8.470366|    0.824248|    0.012019|
|        5413|   -6.331116|   -8.464976|    0.824248|    0.012019|
|        5414|   -6.330129|   -8.459702|    0.824249|    0.012019|
|        5415|   -6.329135|   -8.454569|    0.824249|    0.012019|
|        5416|   -6.328140|   -8.449598|    0.824249|    0.012019|
|        5417|   -6.327148|   -8.444807|    0.824249|    0.012019|
|        5418|   -6.326164|   -8.440208|    0.824249|    0.012019|
|        5419|   -6.325197|   -8.435812|    0.824250|    0.012019|
|        5420|   -6.324251|   -8.431628|    0.824250|    0.012019|
|        5421|   -6.323336|   -8.427659|    0.824250|    0.012019|
|        5422|   -6.322460|   -8.423908|    0.824250|    0.012019|
|        5423|   -6.321632|   -8.420375|    0.824250|    0.012019|
|        5424|   -6.320863|   -8.417057|    0.824250|    0.012019|
|        5425|   -6.320163|   -8.413951|    0.824251|    0.012019|
|        5426|   -6.319543|   -8.411052|    0.824251|    0.012019|
|        5427|   -6.319017|   -8.408354|    0.824251|    0.012019|
|        5428|   -6.318596|   -8.405849|    0.824251|    0.012019|
|        5429|   -6.318295|   -8.403530|    0.824251|    0.012019|
|        5430|   -6.318126|   -8.401388|    0.824251|    0.012019|
|        5431|   -6.318103|   -8.399416|    0.824251|    0.012019|
|        5432|   -6.318241|   -8.397606|    0.824252|    0.012019|
|        5433|   -6.318554|   -8.395949|    0.824252|    0.012019|
|        5434|   -6.319056|   -8.394438|    0.824252|    0.012019|
|        5435|   -6.319759|   -8.393066|    0.824252|    0.012019|
|        5436|   -6.320677|   -8.391826|    0.824252|    0.012019|
|        5437|   -6.321822|   -8.390712|    0.824252|    0.012019|
|        5438|   -6.323205|   -8.389717|    0.824252|    0.012019|
|        5439|   -6.324835|   -8.388838|    0.824252|    0.012019|
|        5440|   -6.326720|   -8.388070|    0.824252|    0.012019|
|        5441|   -6.328867|   -8.387407|    0.824252|    0.012019|
|        5442|   -6.331281|   -8.386847|    0.824252|    0.012019|
|        5443|   -6.333963|   -8.386386|    0.824252|    0.012019|
|        5444|   -6.336913|   -8.386020|    0.824253|    0.012019|
|        5445|   -6.340129|   -8.385747|    0.824253|    0.012019|
|        5446|   -6.343604|   -8.385563|    0.824253|    0.012019|
|        5447|   -6.347331|   -8.385465|    0.824253|    0.012019|
|        5448|   -6.351296|   -8.385450|    0.824253|    0.012019|
|        5449|   -6.355485|   -8.385515|    0.824253|    0.012020|
|        5450|   -6.359878|   -8.385657|    0.824253|    0.012020|
|        5451|   -6.364455|   -8.385873|    0.824253|    0.012020|
|        5452|   -6.369187|   -8.386159|    0.824253|    0.012020|
|        5453|   -6.374047|   -8.386512|    0.824253|    0.012020|
|        5454|   -6.379001|   -8.386928|    0.824253|    0.012020|
|        5455|   -6.384014|   -8.387403|    0.824253|    0.012020|
|        5456|   -6.389046|   -8.387935|    0.824253|    0.012020|
|        5457|   -6.394056|   -8.388518|    0.824253|    0.012020|
|        5458|   -6.399001|   -8.389150|    0.824253|    0.012020|
|        5459|   -6.403838|   -8.389827|    0.824253|    0.012020|
|        5460|   -6.408521|   -8.390544|    0.824253|    0.012020|
|        5461|   -6.413007|   -8.391299|    0.824252|    0.012021|
|        5462|   -6.417253|   -8.392088|    0.824252|    0.012021|
|        5463|   -6.421220|   -8.392906|    0.824252|    0.012021|
|        5464|   -6.424872|   -8.393752|    0.824252|    0.012021|
|        5465|   -6.428177|   -8.394620|    0.824252|    0.012021|
|        5466|   -6.431110|   -8.395508|    0.824252|    0.012021|
|        5467|   -6.433651|   -8.396413|    0.824252|    0.012021|
|        5468|   -6.435789|   -8.397330|    0.824252|    0.012021|
|        5469|   -6.437517|   -8.398257|    0.824252|    0.012021|
|        5470|   -6.438840|   -8.399191|    0.824252|    0.012021|
|        5471|   -6.439765|   -8.400127|    0.824252|    0.012021|
|        5472|   -6.440310|   -8.401063|    0.824252|    0.012021|
|        5473|   -6.440497|   -8.401995|    0.824252|    0.012021|
|        5474|   -6.440354|   -8.402919|    0.824251|    0.012021|
|        5475|   -6.439912|   -8.403832|    0.824251|    0.012021|
|        5476|   -6.439208|   -8.404731|    0.824251|    0.012021|
|        5477|   -6.438279|   -8.405612|    0.824251|    0.012021|
|        5478|   -6.437166|   -8.406471|    0.824251|    0.012021|
|        5479|   -6.435907|   -8.407304|    0.824251|    0.012022|
|        5480|   -6.434543|   -8.408109|    0.824251|    0.012022|
|        5481|   -6.433113|   -8.408882|    0.824251|    0.012022|
|        5482|   -6.431654|   -8.409619|    0.824251|    0.012022|
|        5483|   -6.430200|   -8.410317|    0.824251|    0.012022|
|        5484|   -6.428786|   -8.410974|    0.824251|    0.012022|
|        5485|   -6.427442|   -8.411587|    0.824250|    0.012022|
|        5486|   -6.426195|   -8.412154|    0.824250|    0.012022|
|        5487|   -6.425070|   -8.412672|    0.824250|    0.012022|
|        5488|   -6.424090|   -8.413140|    0.824250|    0.012022|
|        5489|   -6.423274|   -8.413556|    0.824250|    0.012022|
|        5490|   -6.422639|   -8.413920|    0.824250|    0.012022|
|        5491|   -6.422198|   -8.414231|    0.824250|    0.012022|
|        5492|   -6.421965|   -8.414488|    0.824250|    0.012022|
|        5493|   -6.421948|   -8.414692|    0.824250|    0.012022|
|        5494|   -6.422154|   -8.414844|    0.824250|    0.012021|
|        5495|   -6.422590|   -8.414945|    0.824250|    0.012021|
|        5496|   -6.423259|   -8.414994|    0.824250|    0.012021|
|        5497|   -6.424162|   -8.414994|    0.824250|    0.012021|
|        5498|   -6.425300|   -8.414947|    0.824250|    0.012021|
|        5499|   -6.426673|   -8.414853|    0.824250|    0.012007|
+-----------------------------------------------------------------------+
|Fixed CL Mode (Finite Difference)       |Value                         |
+-----------------------------------------------------------------------+
|Delta CL / Delta AoA                    |0.249498                      |
|Delta CD / Delta CL                     |0.018124                      |
|Delta CMz / Delta CL                    |0.00584739                    |
+-----------------------------------------------------------------------+
Writing Flow Meta-Data file: flow.meta

----------------------------- Solver Exit -------------------------------

Maximum number of iterations reached (ITER = 5500) before convergence.
+-----------------------------------------------------------------------+
|      Convergence Field     |     Value    |   Criterion  |  Converged |
+-----------------------------------------------------------------------+
|                    rms[Rho]|      -6.42667|         < -12|          No|
+-----------------------------------------------------------------------+
-------------------------------------------------------------------------

--------------------------- Finalizing Solver ---------------------------
Deleted CNumerics container.
Deleted CIntegration container.
Deleted CSolver container.
Deleted CIteration container.
Deleted CInterface container.
Deleted CGeometry container.
Deleted CFreeFormDefBox class.
Deleted CSurfaceMovement class.
Deleted CVolumetricMovement class.
Deleted CConfig container.
Deleted nInst container.
Deleted COutput class.
-------------------------------------------------------------------------

------------------------- Exit Success (SU2_CFD) ------------------------


-------------------------------------------------------------------------
|    ___ _   _ ___                                                      |
|   / __| | | |_  )   Release 8.0.0 "Harrier"                           |
|   \__ \ |_| |/ /                                                      |
|   |___/\___//___|   Suite (Solution Exporting Code)                   |
|                                                                       |
-------------------------------------------------------------------------
| SU2 Project Website: https://su2code.github.io                        |
|                                                                       |
| The SU2 Project is maintained by the SU2 Foundation                   |
| (http://su2foundation.org)                                            |
-------------------------------------------------------------------------
| Copyright 2012-2023, SU2 Contributors                                 |
|                                                                       |
| SU2 is free software; you can redistribute it and/or                  |
| modify it under the terms of the GNU Lesser General Public            |
| License as published by the Free Software Foundation; either          |
| version 2.1 of the License, or (at your option) any later version.    |
|                                                                       |
| SU2 is distributed in the hope that it will be useful,                |
| but WITHOUT ANY WARRANTY; without even the implied warranty of        |
| MERCHANTABILITY or FITNESS FOR A PARTICULAR PURPOSE. See the GNU      |
| Lesser General Public License for more details.                       |
|                                                                       |
| You should have received a copy of the GNU Lesser General Public      |
| License along with SU2. If not, see <http://www.gnu.org/licenses/>.   |
-------------------------------------------------------------------------

----------------- Physical Case Definition ( Zone 0 ) -------------------
Input mesh file name: mesh_RAE2822_turb_deform.su2

-------------------- Output Information ( Zone 0 ) ----------------------
The tabular file format is CSV (.csv).
Flow variables file name: flow.

------------- Config File Boundary Information ( Zone 0 ) ---------------
+-----------------------------------------------------------------------+
|                        Marker Type|                        Marker Name|
+-----------------------------------------------------------------------+
|                          Far-field|                           FARFIELD|
+-----------------------------------------------------------------------+
|                     Heat flux wall|                            AIRFOIL|
+-----------------------------------------------------------------------+
Two dimensional problem.
13937 grid points before partitioning.
22842 volume elements before partitioning.
2 surface markers.
192 boundary elements in index 0 (Marker = AIRFOIL).
40 boundary elements in index 1 (Marker = FARFIELD).
Executing the partitioning functions.
Building the graph adjacency structure.
Calling ParMETIS... graph partitioning complete (831 edge cuts).
Distributing ParMETIS coloring.
Rebalancing vertices.
Rebalancing volume element connectivity.
Rebalancing markers and surface elements.
14875 vertices including ghost points. 
23674 interior elements including halo cells. 
18780 triangles.
4894 quadrilaterals.
Establishing MPI communication patterns.
Identify vertices.
Storing a mapping from global to local point index.

------------------------- Solution Postprocessing -----------------------
Reading and storing the solution from restart_flow.
Volume output fields: COORDINATES, SOLUTION
  Info: Ignoring the following screen output fields:
  RMS_DENSITY, RMS_NU_TILDE, LIFT, DRAG
Screen output fields: INNER_ITER
  Info: Ignoring the following history output groups:
  RMS_RES, AERO_COEFF
History output group(s): ITER
Warning: No (valid) fields chosen for convergence monitoring. Convergence monitoring inactive.
Warning: No (valid) fields chosen for time convergence monitoring. Time convergence monitoring inactive.
|Paraview                           |flow.vtu                           |
|Paraview surface                   |surface_flow.vtu                   |
|CSV file                           |surface_flow.csv                   |

------------------------- Finalize Solver -------------------------
Deleted CGeometry container.
Deleted CSolver class.
Deleted CConfig container.
Deleted COutput class.

Completed in 0.015002 seconds on 6 cores.

------------------------- Exit Success (SU2_SOL) ------------------------

