
-------------------------------------------------------------------------
|    ___ _   _ ___                                                      |
|   / __| | | |_  )   Release 8.0.0 "Harrier"                           |
|   \__ \ |_| |/ /                                                      |
|   |___/\___//___|   Suite (Computational Fluid Dynamics Code)         |
|                                                                       |
-------------------------------------------------------------------------
| SU2 Project Website: https://su2code.github.io                        |
|                                                                       |
| The SU2 Project is maintained by the SU2 Foundation                   |
| (http://su2foundation.org)                                            |
-------------------------------------------------------------------------
| Copyright 2012-2023, SU2 Contributors                                 |
|                                                                       |
| SU2 is free software; you can redistribute it and/or                  |
| modify it under the terms of the GNU Lesser General Public            |
| License as published by the Free Software Foundation; either          |
| version 2.1 of the License, or (at your option) any later version.    |
|                                                                       |
| SU2 is distributed in the hope that it will be useful,                |
| but WITHOUT ANY WARRANTY; without even the implied warranty of        |
| MERCHANTABILITY or FITNESS FOR A PARTICULAR PURPOSE. See the GNU      |
| Lesser General Public License for more details.                       |
|                                                                       |
| You should have received a copy of the GNU Lesser General Public      |
| License along with SU2. If not, see <http://www.gnu.org/licenses/>.   |
-------------------------------------------------------------------------

Parsing config file for zone 0

----------------- Physical Case Definition ( Zone 0 ) -------------------
Compressible RANS equations.
Turbulence model: Spalart-Allmaras-noft2
Hybrid RANS/LES: No Hybrid RANS/LES
Mach number: 0.734.
Angle of attack (AoA): 2.31 deg, and angle of sideslip (AoS): 0 deg.
Reynolds number: 6.5e+06. Reference length 1.
No restart solution, use the values at infinity (freestream).
Dimensional simulation.
The reference area is 1 m^2.
The semi-span will be computed using the max y(3D) value.
The reference length is 1 m.
Reference origin for moment evaluation is (0.25, 0, 0).
Surface(s) where the force coefficients are evaluated: AIRFOIL.

Surface(s) plotted in the output file: AIRFOIL.
Input mesh file name: Mesh.su2

--------------- Space Numerical Integration ( Zone 0 ) ------------------
Roe (with entropy fix = 0.001) solver for the flow inviscid terms.
Standard Roe without low-dissipation function.
Second order integration in space, with slope limiter.
Venkatakrishnan slope-limiting method, with constant: 0.03.
The reference element size is: 1. 
Scalar upwind solver for the turbulence model.
First order integration in space.
Average of gradients with correction (viscous flow terms).
Average of gradients with correction (viscous turbulence terms).
Gradient for upwind reconstruction: inverse-distance weighted Least-Squares.
Gradient for viscous and source terms: inverse-distance weighted Least-Squares.

--------------- Time Numerical Integration  ( Zone 0 ) ------------------
Local time stepping (steady state simulation).
Euler implicit method for the flow equations.
FGMRES is used for solving the linear system.
Using a ILU(0) preconditioning.
Convergence criteria of the linear solver: 1e-06.
Max number of linear iterations: 10.
CFL adaptation. Factor down: 0.5, factor up: 1.1,
                lower limit: 1, upper limit: 1000,
                acceptable linear residual: 0.001.
Courant-Friedrichs-Lewy number:        2
Euler implicit time integration for the turbulence model.

------------------ Convergence Criteria  ( Zone 0 ) ---------------------
Maximum number of solver subiterations: 5000.
Begin convergence monitoring at iteration 10.
Residual minimum value: 1e-14.
Cauchy series min. value: 1e-06.
Number of Cauchy elements: 100.
Begin windowed time average at iteration 0.

-------------------- Output Information ( Zone 0 ) ----------------------
File writing frequency: 
+------------------------------------+
|                     File| Frequency|
+------------------------------------+
|                  RESTART|       500|
|                 PARAVIEW|       500|
|         SURFACE_PARAVIEW|       500|
+------------------------------------+
Writing the convergence history file every 1 inner iterations.
Writing the screen convergence history every 1 inner iterations.
The tabular file format is CSV (.csv).
Convergence history file name: historySecond.
Forces breakdown file name: forces_breakdown.dat.
Surface file name: surface_flow.
Volume file name: flow.
Restart file name: restart_flow.dat.

------------- Config File Boundary Information ( Zone 0 ) ---------------
+-----------------------------------------------------------------------+
|                        Marker Type|                        Marker Name|
+-----------------------------------------------------------------------+
|                          Far-field|                           FARFIELD|
+-----------------------------------------------------------------------+
|                     Heat flux wall|                            AIRFOIL|
+-----------------------------------------------------------------------+

-------------------- Output Preprocessing ( Zone 0 ) --------------------

WARNING: SURFACE_PRESSURE_DROP can only be computed for at least 2 surfaces (outlet, inlet, ...)

Screen output fields: INNER_ITER, WALL_TIME, RMS_DENSITY, LIFT, DRAG, MIN_CFL, MAX_CFL, AVG_CFL
  Info: Ignoring the following history output groups:
  RESIDUALS, CFL
History output group(s): INNER_ITER, LIFT, DRAG
Convergence field(s): LIFT
Warning: No (valid) fields chosen for time convergence monitoring. Time convergence monitoring inactive.
  Info: Ignoring the following volume output fields/groups:
  RESIDUALS
Volume output fields: SOLUTION, PRIMITIVE, GRADIENTS, HESSIANS, EIGENVALUES, WALL_DISTANCE, COORDINATES

------------------- Geometry Preprocessing ( Zone 0 ) -------------------
Two dimensional problem.
283227 grid points before partitioning.
422017 volume elements before partitioning.
2 surface markers.
3720 boundary elements in index 0 (Marker = AIRFOIL).
40 boundary elements in index 1 (Marker = FARFIELD).
Executing the partitioning functions.
Building the graph adjacency structure.
Calling ParMETIS... graph partitioning complete (1784 edge cuts).
Distributing ParMETIS coloring.
Rebalancing vertices.
Rebalancing volume element connectivity.
Rebalancing markers and surface elements.
285316 vertices including ghost points. 
423801 interior elements including halo cells. 
282829 triangles.
140972 quadrilaterals.
Establishing MPI communication patterns.
Setting point connectivity.
Renumbering points (Reverse Cuthill McKee Ordering).
Recomputing point connectivity.
Setting element connectivity.
Checking the numerical grid orientation.
All volume elements are correctly orientend.
All surface elements are correctly orientend.
Identifying edges and vertices.
Setting the control volume structure.
Area of the computational grid: 31287.6.
Searching for the closest normal neighbors to the surfaces.
Storing a mapping from global to local point index.
Compute the surface curvature.
Max K: 13978.6. Mean K: 13.454. Standard deviation K: 315.929.
Checking for periodicity.
Computing mesh quality statistics for the dual control volumes.
+--------------------------------------------------------------+
|           Mesh Quality Metric|        Minimum|        Maximum|
+--------------------------------------------------------------+
|    Orthogonality Angle (deg.)|        51.9653|             90|
|     CV Face Area Aspect Ratio|        1.00015|        1057.14|
|           CV Sub-Volume Ratio|              1|        11.7353|
+--------------------------------------------------------------+
Finding max control volume width.
Communicating number of neighbors.
Wetted area = 2.02063 m.
Area projection in the x-plane = 0.123301 m, y-plane = 0.993661 m.
Max. coordinate in the x-direction = 0.993668 m, y-direction = 0.0643505 m.
Min. coordinate in the x-direction = 0 m, y-direction = -0.0577868 m.
Computing wall distances.

-------------------- Solver Preprocessing ( Zone 0 ) --------------------
Viscous flow: Computing pressure using the ideal gas law
based on the free-stream temperature and a density computed
from the Reynolds number.
Force coefficients computed using free-stream values.

-- Models:
+------------------------------------------------------------------------------+
|          Viscosity Model|        Conductivity Model|              Fluid Model|
+------------------------------------------------------------------------------+
|               SUTHERLAND|          CONSTANT_PRANDTL|             STANDARD_AIR|
+------------------------------------------------------------------------------+
-- Fluid properties:
+------------------------------------------------------------------------------+
|                  Name|    Dim. value|    Ref. value|      Unit|Non-dim. value|
+------------------------------------------------------------------------------+
|        Ref. Viscosity|     1.716e-05|             1|   N.s/m^2|     1.716e-05|
|      Sutherland Temp.|        273.15|             1|         K|        273.15|
|     Sutherland Const.|         110.4|             1|         K|         110.4|
+------------------------------------------------------------------------------+
|        Prandtl (Lam.)|             -|             -|         -|          0.71|
|       Prandtl (Turb.)|             -|             -|         -|           0.9|
+------------------------------------------------------------------------------+
|          Gas Constant|       287.058|             1|  N.m/kg.K|       287.058|
|      Spec. Heat Ratio|             -|             -|         -|           1.4|
+------------------------------------------------------------------------------+
-- Initial and free-stream conditions:
+------------------------------------------------------------------------------+
|                  Name|    Dim. value|    Ref. value|      Unit|Non-dim. value|
+------------------------------------------------------------------------------+
|       Static Pressure|         38515|             1|        Pa|         38515|
|               Density|      0.465631|             1|    kg/m^3|      0.465631|
|           Temperature|        288.15|             1|         K|        288.15|
|          Total Energy|        237984|             1|   m^2/s^2|        237984|
|            Velocity-X|       249.575|             1|       m/s|       249.575|
|            Velocity-Y|       10.0676|             1|       m/s|       10.0676|
|    Velocity Magnitude|       249.778|             1|       m/s|       249.778|
+------------------------------------------------------------------------------+
|             Viscosity|    1.7893e-05|             1|   N.s/m^2|    1.7893e-05|
|          Conductivity|             -|             1|   W/m^2.K|             -|
|     Turb. Kin. Energy|       233.959|             1|   m^2/s^2|       233.959|
|     Spec. Dissipation|        608834|             1|       1/s|        608834|
+------------------------------------------------------------------------------+
|           Mach Number|             -|             -|         -|         0.734|
|       Reynolds Number|             -|             -|         -|       6.5e+06|
+------------------------------------------------------------------------------+
Initialize Jacobian structure (Navier-Stokes). MG level: 0.
Initialize Jacobian structure (SA model).

------------------- Numerics Preprocessing ( Zone 0 ) -------------------

----------------- Integration Preprocessing ( Zone 0 ) ------------------

------------------- Iteration Preprocessing ( Zone 0 ) ------------------
Euler/Navier-Stokes/RANS fluid iteration.

------------------------------ Begin Solver -----------------------------

Simulation Run using the Single-zone Driver
WARNING: SU2 was not compiled for an AVX-capable architecture. Performance could be better,
         see https://su2code.github.io/docs_v7/Build-SU2-Linux-MacOS/#compiler-optimizations
+-------------------------------------------------------------------------------------------------------+
|  Inner_Iter|   Time(sec)|    rms[Rho]|          CL|          CD|     Min CFL|     Max CFL|     Avg CFL|
+-------------------------------------------------------------------------------------------------------+
|           0|  4.7385e-01|   -2.956353|    0.096778|    0.414799|  2.0000e+00|  2.2000e+00|  2.1997e+00|
|           1|  4.7929e-01|   -2.994551|    0.148427|    0.437934|  2.0000e+00|  2.4200e+00|  2.4196e+00|
|           2|  5.8747e-01|   -3.140655|    0.180913|    0.451572|  2.0000e+00|  2.6620e+00|  2.6614e+00|
|           3|  5.6643e-01|   -3.209037|    0.194771|    0.451046|  2.2000e+00|  2.9282e+00|  2.9275e+00|
|           4|  5.5830e-01|   -3.260423|    0.197876|    0.438377|  2.4200e+00|  3.2210e+00|  3.2201e+00|
|           5|  6.0938e-01|   -3.310206|    0.195417|    0.418949|  2.6620e+00|  3.5431e+00|  3.5420e+00|
|           6|  5.9439e-01|   -3.363144|    0.193404|    0.400078|  2.9282e+00|  3.8974e+00|  3.8959e+00|
|           7|  5.8690e-01|   -3.391700|    0.191943|    0.382737|  3.2210e+00|  4.2872e+00|  4.2851e+00|
|           8|  6.2285e-01|   -3.422011|    0.190135|    0.367080|  3.5431e+00|  4.7159e+00|  4.7131e+00|
|           9|  6.1594e-01|   -3.448544|    0.189573|    0.354407|  3.8974e+00|  5.1875e+00|  5.1838e+00|
|          10|  6.1179e-01|   -3.470323|    0.189870|    0.343978|  4.2872e+00|  5.7062e+00|  5.7014e+00|
|          11|  6.3772e-01|   -3.493676|    0.190654|    0.334760|  4.7159e+00|  6.2769e+00|  6.2707e+00|
|          12|  6.3624e-01|   -3.514867|    0.191458|    0.326141|  5.1875e+00|  6.9045e+00|  6.8966e+00|
|          13|  6.3588e-01|   -3.533952|    0.192138|    0.317821|  5.7062e+00|  7.5950e+00|  7.5849e+00|
|          14|  6.5493e-01|   -3.550545|    0.192667|    0.309847|  6.2769e+00|  8.3545e+00|  8.3418e+00|
|          15|  6.7630e-01|   -3.563742|    0.193101|    0.302381|  6.9045e+00|  9.1899e+00|  9.1741e+00|
|          16|  6.7812e-01|   -3.572036|    0.193413|    0.295479|  7.5950e+00|  1.0109e+01|  1.0089e+01|
|          17|  6.9666e-01|   -3.576414|    0.193708|    0.289083|  8.3545e+00|  1.1120e+01|  1.1096e+01|
|          18|  6.9698e-01|   -3.576136|    0.194006|    0.283075|  9.1899e+00|  1.2232e+01|  1.2202e+01|
|          19|  7.0905e-01|   -3.572811|    0.194284|    0.277348|  1.0109e+01|  1.3455e+01|  1.3420e+01|
|          20|  7.0900e-01|   -3.568804|    0.194510|    0.271833|  1.0109e+01|  1.4800e+01|  1.4758e+01|
|          21|  7.0928e-01|   -3.565964|    0.194656|    0.266507|  1.0109e+01|  1.6281e+01|  1.6230e+01|
|          22|  7.2164e-01|   -3.563558|    0.194714|    0.261316|  1.0109e+01|  1.7909e+01|  1.7849e+01|
|          23|  7.2160e-01|   -3.558937|    0.194729|    0.256191|  1.0109e+01|  1.9699e+01|  1.9630e+01|
|          24|  7.3219e-01|   -3.550259|    0.194617|    0.251097|  1.1120e+01|  2.1669e+01|  2.1588e+01|
|          25|  7.3146e-01|   -3.535024|    0.194367|    0.246005|  1.2232e+01|  2.3836e+01|  2.3741e+01|
|          26|  7.4136e-01|   -3.511993|    0.193972|    0.240860|  1.3455e+01|  2.6220e+01|  2.6109e+01|
|          27|  7.4056e-01|   -3.482616|    0.193367|    0.235587|  1.4800e+01|  2.8842e+01|  2.8715e+01|
|          28|  7.3989e-01|   -3.450082|    0.192508|    0.230065|  1.6281e+01|  3.1726e+01|  3.1581e+01|
|          29|  7.4783e-01|   -3.416137|    0.191360|    0.224163|  8.1403e+00|  1.5863e+01|  1.5790e+01|
|          30|  7.4696e-01|   -3.382550|    0.190767|    0.221257|  8.9543e+00|  1.7449e+01|  1.7369e+01|
|          31|  7.4619e-01|   -3.362475|    0.190029|    0.218041|  9.8497e+00|  1.9194e+01|  1.9106e+01|
|          32|  7.5176e-01|   -3.338659|    0.189207|    0.214518|  1.0835e+01|  2.1114e+01|  2.1017e+01|
|          33|  7.5090e-01|   -3.312909|    0.188296|    0.210662|  1.1918e+01|  2.3225e+01|  2.3118e+01|
|          34|  7.5871e-01|   -3.287070|    0.187305|    0.206437|  1.3110e+01|  2.5548e+01|  2.5429e+01|
|          35|  7.5760e-01|   -3.262657|    0.186297|    0.201793|  1.4421e+01|  2.8102e+01|  2.7971e+01|
|          36|  7.5852e-01|   -3.240291|    0.185347|    0.196654|  1.5863e+01|  3.0913e+01|  3.0767e+01|
|          37|  7.6592e-01|   -3.220044|    0.184562|    0.190913|  1.7449e+01|  3.4004e+01|  3.3843e+01|
|          38|  7.6524e-01|   -3.201534|    0.184083|    0.184471|  1.9194e+01|  3.7404e+01|  3.7226e+01|
|          39|  7.6934e-01|   -3.185938|    0.184015|    0.177308|  9.5972e+00|  1.8702e+01|  1.8613e+01|
|          40|  7.7518e-01|   -3.173400|    0.184102|    0.173741|  1.0557e+01|  2.0572e+01|  2.0474e+01|
|          41|  7.7399e-01|   -3.164658|    0.184284|    0.169819|  1.1613e+01|  2.2630e+01|  2.2522e+01|
|          42|  7.7953e-01|   -3.151153|    0.184569|    0.165575|  1.2774e+01|  2.4893e+01|  2.4774e+01|
|          43|  7.7806e-01|   -3.136319|    0.184910|    0.161057|  1.4051e+01|  2.7382e+01|  2.7251e+01|
|          44|  7.8188e-01|   -3.122394|    0.185190|    0.156337|  1.5456e+01|  3.0120e+01|  2.9977e+01|
|          45|  7.8060e-01|   -3.110361|    0.185210|    0.151514|  1.7002e+01|  3.3132e+01|  3.2974e+01|
|          46|  7.8461e-01|   -3.100799|    0.184694|    0.146696|  1.8702e+01|  3.6445e+01|  3.6272e+01|
|          47|  7.8329e-01|   -3.091794|    0.183333|    0.141971|  9.3511e+00|  1.8223e+01|  1.8136e+01|
|          48|  7.8760e-01|   -3.082119|    0.182454|    0.139747|  1.0286e+01|  2.0045e+01|  1.9949e+01|
|          49|  7.8624e-01|   -3.074415|    0.181221|    0.137449|  1.1315e+01|  2.2049e+01|  2.1944e+01|
|          50|  7.8887e-01|   -3.063683|    0.179584|    0.135087|  1.2446e+01|  2.4254e+01|  2.4139e+01|
|          51|  7.8759e-01|   -3.050988|    0.177508|    0.132653|  1.3691e+01|  2.6680e+01|  2.6553e+01|
|          52|  7.8635e-01|   -3.037620|    0.175010|    0.130121|  1.5060e+01|  2.9348e+01|  2.9208e+01|
|          53|  7.8893e-01|   -3.023986|    0.172207|    0.127444|  1.6566e+01|  3.2282e+01|  3.2129e+01|
|          54|  7.8773e-01|   -3.009720|    0.169359|    0.124552|  1.6566e+01|  3.2282e+01|  3.2129e+01|
|          55|  7.9058e-01|   -2.994027|    0.167033|    0.121653|  1.6566e+01|  3.2282e+01|  3.2129e+01|
|          56|  7.8942e-01|   -2.977309|    0.165471|    0.118703|  1.6566e+01|  3.2282e+01|  3.2129e+01|
|          57|  7.8827e-01|   -2.958627|    0.164867|    0.115669|  1.6566e+01|  3.2282e+01|  3.2129e+01|
|          58|  7.9110e-01|   -2.941452|    0.165353|    0.112537|  1.6566e+01|  3.2282e+01|  3.2129e+01|
|          59|  7.9000e-01|   -2.923945|    0.167009|    0.109307|  1.6566e+01|  3.2282e+01|  3.2129e+01|
|          60|  7.9033e-01|   -2.906128|    0.169870|    0.105992|  1.6566e+01|  3.2282e+01|  3.2129e+01|
|          61|  7.9427e-01|   -2.887675|    0.173923|    0.102624|  1.6566e+01|  3.2282e+01|  3.2129e+01|
|          62|  7.9311e-01|   -2.870154|    0.179123|    0.099249|  1.6566e+01|  3.2282e+01|  3.2129e+01|
|          63|  7.9690e-01|   -2.850593|    0.185385|    0.095928|  1.6566e+01|  3.2282e+01|  3.2129e+01|
|          64|  7.9573e-01|   -2.833056|    0.192594|    0.092732|  1.6566e+01|  3.2282e+01|  3.2129e+01|
|          65|  7.9938e-01|   -2.816869|    0.200618|    0.089734|  1.6566e+01|  3.2282e+01|  3.2129e+01|
|          66|  7.9818e-01|   -2.799863|    0.209329|    0.087007|  1.6566e+01|  3.2282e+01|  3.2129e+01|
|          67|  7.9972e-01|   -2.782588|    0.218595|    0.084616|  1.6566e+01|  3.2282e+01|  3.2129e+01|
|          68|  7.9856e-01|   -2.766291|    0.228299|    0.082614|  1.6566e+01|  3.2282e+01|  3.2129e+01|
|          69|  8.0133e-01|   -2.751312|    0.238344|    0.081037|  1.8223e+01|  3.5511e+01|  3.5342e+01|
|          70|  8.0025e-01|   -2.737566|    0.249702|    0.079836|  9.1113e+00|  1.7755e+01|  1.7671e+01|
|          71|  8.0248e-01|   -2.725000|    0.255436|    0.079364|  1.0022e+01|  1.9531e+01|  1.9438e+01|
|          72|  8.0545e-01|   -2.717723|    0.261817|    0.079006|  1.1025e+01|  2.1484e+01|  2.1382e+01|
|          73|  8.0422e-01|   -2.709570|    0.268900|    0.078801|  1.2127e+01|  2.3632e+01|  2.3520e+01|
|          74|  8.0755e-01|   -2.701649|    0.276741|    0.078789|  1.3340e+01|  2.5996e+01|  2.5872e+01|
|          75|  8.0630e-01|   -2.693841|    0.285397|    0.079004|  1.4674e+01|  2.8595e+01|  2.8459e+01|
|          76|  8.0823e-01|   -2.686847|    0.294904|    0.079472|  1.6141e+01|  3.1455e+01|  3.1305e+01|
|          77|  8.0713e-01|   -2.680177|    0.305279|    0.080192|  1.7755e+01|  3.4600e+01|  3.4435e+01|
|          78|  8.0603e-01|   -2.674924|    0.316496|    0.081127|  1.9531e+01|  3.8060e+01|  3.7879e+01|
|          79|  8.0763e-01|   -2.670021|    0.328478|    0.082187|  9.7655e+00|  1.9030e+01|  1.8940e+01|
|          80|  8.0658e-01|   -2.666145|    0.334368|    0.082706|  1.0742e+01|  2.0933e+01|  2.0833e+01|
|          81|  8.0896e-01|   -2.662858|    0.340715|    0.083247|  1.1816e+01|  2.3026e+01|  2.2917e+01|
|          82|  8.0791e-01|   -2.659662|    0.347512|    0.083776|  1.2998e+01|  2.5329e+01|  2.5208e+01|
|          83|  8.1022e-01|   -2.654606|    0.354742|    0.084245|  1.4298e+01|  2.7862e+01|  2.7729e+01|
|          84|  8.0918e-01|   -2.650166|    0.362381|    0.084588|  1.5727e+01|  3.0648e+01|  3.0502e+01|
|          85|  8.1081e-01|   -2.644707|    0.370387|    0.084725|  1.7300e+01|  3.3713e+01|  3.3552e+01|
|          86|  8.0981e-01|   -2.638685|    0.378702|    0.084559|  1.9030e+01|  3.7084e+01|  3.6908e+01|
|          87|  8.1206e-01|   -2.633717|    0.387245|    0.083989|  9.5151e+00|  1.8542e+01|  1.8454e+01|
|          88|  8.1346e-01|   -2.627644|    0.391372|    0.083612|  1.0467e+01|  2.0396e+01|  2.0299e+01|
|          89|  8.1327e-01|   -2.625823|    0.395733|    0.083084|  1.1513e+01|  2.2436e+01|  2.2329e+01|
|          90|  8.1479e-01|   -2.622481|    0.400314|    0.082371|  1.2665e+01|  2.4680e+01|  2.4562e+01|
|          91|  8.1375e-01|   -2.616634|    0.405089|    0.081439|  1.3931e+01|  2.7148e+01|  2.7018e+01|
|          92|  8.1538e-01|   -2.611169|    0.410020|    0.080252|  1.5324e+01|  2.9862e+01|  2.9720e+01|
|          93|  8.1439e-01|   -2.605759|    0.415054|    0.078779|  1.6856e+01|  3.2849e+01|  3.2692e+01|
|          94|  8.1687e-01|   -2.601420|    0.420115|    0.076997|  1.8542e+01|  3.6133e+01|  3.5961e+01|
|          95|  8.1586e-01|   -2.596452|    0.425112|    0.074891|  1.8542e+01|  3.6133e+01|  3.5961e+01|
|          96|  8.1714e-01|   -2.592041|    0.429562|    0.072691|  1.8542e+01|  3.6133e+01|  3.5961e+01|
|          97|  8.1673e-01|   -2.588009|    0.433502|    0.070441|  1.8542e+01|  3.6133e+01|  3.5961e+01|
|          98|  8.1880e-01|   -2.583950|    0.436991|    0.068180|  1.8542e+01|  3.6133e+01|  3.5961e+01|
|          99|  8.1778e-01|   -2.579896|    0.440111|    0.065947|  1.8542e+01|  3.6133e+01|  3.5961e+01|
|         100|  8.1685e-01|   -2.575898|    0.442962|    0.063774|  9.2711e+00|  1.8067e+01|  1.7981e+01|
|         101|  8.1837e-01|   -2.572190|    0.444336|    0.062708|  1.0198e+01|  1.9873e+01|  1.9779e+01|
|         102|  8.1743e-01|   -2.570156|    0.445801|    0.061562|  1.1218e+01|  2.1861e+01|  2.1757e+01|
|         103|  8.1887e-01|   -2.567091|    0.447392|    0.060340|  1.0000e+00|  1.0000e+00|  1.0000e+00|
|         104|  8.1556e-01|   -2.564204|    0.447464|    0.060283|  1.1000e+00|  1.1000e+00|  1.1000e+00|
|         105|  8.1265e-01|   -2.564156|    0.447544|    0.060221|  1.2100e+00|  1.2100e+00|  1.2100e+00|
|         106|  8.0980e-01|   -2.564038|    0.447632|    0.060153|  1.3310e+00|  1.3310e+00|  1.3310e+00|
|         107|  8.0947e-01|   -2.563865|    0.447728|    0.060079|  1.4641e+00|  1.4641e+00|  1.4641e+00|
|         108|  8.0710e-01|   -2.563650|    0.447835|    0.059997|  1.6105e+00|  1.6105e+00|  1.6105e+00|
|         109|  8.0677e-01|   -2.563397|    0.447952|    0.059907|  1.7716e+00|  1.7716e+00|  1.7716e+00|
|         110|  8.0405e-01|   -2.563103|    0.448081|    0.059809|  1.9487e+00|  1.9487e+00|  1.9487e+00|
|         111|  8.0139e-01|   -2.562768|    0.448223|    0.059702|  2.1436e+00|  2.1436e+00|  2.1436e+00|
|         112|  8.0124e-01|   -2.562391|    0.448379|    0.059584|  2.3579e+00|  2.3579e+00|  2.3579e+00|
|         113|  7.9901e-01|   -2.561960|    0.448551|    0.059454|  2.5937e+00|  2.5937e+00|  2.5937e+00|
|         114|  7.9917e-01|   -2.561511|    0.448739|    0.059313|  2.8531e+00|  2.8531e+00|  2.8531e+00|
|         115|  7.9700e-01|   -2.561023|    0.448945|    0.059158|  3.1384e+00|  3.1384e+00|  3.1384e+00|
|         116|  7.9488e-01|   -2.560478|    0.449172|    0.058988|  3.4523e+00|  3.4523e+00|  3.4523e+00|
|         117|  7.9556e-01|   -2.559883|    0.449422|    0.058802|  3.7975e+00|  3.7975e+00|  3.7975e+00|
|         118|  7.9380e-01|   -2.559248|    0.449699|    0.058599|  4.1772e+00|  4.1772e+00|  4.1772e+00|
|         119|  7.9421e-01|   -2.558584|    0.450005|    0.058377|  4.5950e+00|  4.5950e+00|  4.5950e+00|
|         120|  7.9246e-01|   -2.557883|    0.450343|    0.058136|  5.0545e+00|  5.0545e+00|  5.0545e+00|
|         121|  7.9109e-01|   -2.557091|    0.450719|    0.057873|  5.5599e+00|  5.5599e+00|  5.5599e+00|
|         122|  7.9119e-01|   -2.556368|    0.451136|    0.057588|  6.1159e+00|  6.1159e+00|  6.1159e+00|
|         123|  7.8984e-01|   -2.555738|    0.451599|    0.057279|  6.7275e+00|  6.7275e+00|  6.7275e+00|
|         124|  7.9078e-01|   -2.555019|    0.452114|    0.056944|  7.4002e+00|  7.4002e+00|  7.4002e+00|
|         125|  7.8976e-01|   -2.554303|    0.452690|    0.056582|  8.1403e+00|  8.1403e+00|  8.1403e+00|
|         126|  7.9042e-01|   -2.553600|    0.453336|    0.056193|  8.9543e+00|  8.9543e+00|  8.9543e+00|
|         127|  7.9039e-01|   -2.552991|    0.454065|    0.055775|  9.8497e+00|  9.8497e+00|  9.8497e+00|
|         128|  7.9158e-01|   -2.552366|    0.454892|    0.055328|  1.0835e+01|  1.0835e+01|  1.0835e+01|
|         129|  7.9093e-01|   -2.552106|    0.455838|    0.054853|  1.1918e+01|  1.1918e+01|  1.1918e+01|
|         130|  7.9254e-01|   -2.552181|    0.456930|    0.054351|  1.3110e+01|  1.3110e+01|  1.3110e+01|
|         131|  7.9191e-01|   -2.552530|    0.458200|    0.053823|  1.4421e+01|  1.4421e+01|  1.4421e+01|
|         132|  7.9367e-01|   -2.553421|    0.459690|    0.053273|  1.5863e+01|  1.5863e+01|  1.5863e+01|
|         133|  7.9306e-01|   -2.555044|    0.461453|    0.052705|  1.7449e+01|  1.7449e+01|  1.7449e+01|
|         134|  7.9414e-01|   -2.557619|    0.463558|    0.052125|  1.9194e+01|  1.9194e+01|  1.9194e+01|
|         135|  7.9363e-01|   -2.559935|    0.466092|    0.051539|  2.1114e+01|  2.1114e+01|  2.1114e+01|
|         136|  7.9312e-01|   -2.565383|    0.469167|    0.050957|  2.3225e+01|  2.3225e+01|  2.3225e+01|
|         137|  7.9433e-01|   -2.570990|    0.472917|    0.050386|  2.5548e+01|  2.5548e+01|  2.5548e+01|
|         138|  7.9381e-01|   -2.581622|    0.477504|    0.049835|  2.8102e+01|  2.8102e+01|  2.8102e+01|
|         139|  7.9484e-01|   -2.591989|    0.483110|    0.049310|  3.0913e+01|  3.0913e+01|  3.0913e+01|
|         140|  7.9436e-01|   -2.608268|    0.489932|    0.048811|  3.4004e+01|  3.4004e+01|  3.4004e+01|
|         141|  7.9387e-01|   -2.624958|    0.498162|    0.048329|  3.4004e+01|  3.4004e+01|  3.4004e+01|
|         142|  7.9495e-01|   -2.649208|    0.507028|    0.047888|  3.4004e+01|  3.4004e+01|  3.4004e+01|
|         143|  7.9447e-01|   -2.673813|    0.516421|    0.047464|  3.4004e+01|  3.4004e+01|  3.4004e+01|
|         144|  7.9519e-01|   -2.699308|    0.526210|    0.047031|  3.7404e+01|  3.7404e+01|  3.7404e+01|
|         145|  7.9636e-01|   -2.729703|    0.537266|    0.046521|  1.8702e+01|  1.8702e+01|  1.8702e+01|
|         146|  7.9587e-01|   -2.754622|    0.542836|    0.046253|  2.0572e+01|  2.0572e+01|  2.0572e+01|
|         147|  7.9849e-01|   -2.787082|    0.548998|    0.045943|  2.2630e+01|  2.2630e+01|  2.2630e+01|
|         148|  7.9797e-01|   -2.809686|    0.555768|    0.045577|  2.4893e+01|  2.4893e+01|  2.4893e+01|
|         149|  7.9972e-01|   -2.826564|    0.563145|    0.045137|  2.7382e+01|  2.7382e+01|  2.7382e+01|
|         150|  7.9920e-01|   -2.842833|    0.571092|    0.044606|  3.0120e+01|  3.0120e+01|  3.0120e+01|
|         151|  8.0028e-01|   -2.860921|    0.579536|    0.043962|  3.3132e+01|  3.3132e+01|  3.3132e+01|
|         152|  7.9976e-01|   -2.869714|    0.588357|    0.043183|  3.6445e+01|  3.6445e+01|  3.6445e+01|
|         153|  8.0109e-01|   -2.881719|    0.597377|    0.042240|  3.6445e+01|  3.6445e+01|  3.6445e+01|
|         154|  8.0056e-01|   -2.896933|    0.605649|    0.041217|  3.6445e+01|  3.6445e+01|  3.6445e+01|
|         155|  8.0187e-01|   -2.904947|    0.613145|    0.040119|  1.8223e+01|  1.8223e+01|  1.8223e+01|
|         156|  8.0300e-01|   -2.912187|    0.616700|    0.039551|  2.0045e+01|  2.0045e+01|  2.0045e+01|
|         157|  8.0249e-01|   -2.925337|    0.620390|    0.038908|  2.2049e+01|  2.2049e+01|  2.2049e+01|
|         158|  8.0308e-01|   -2.930889|    0.624186|    0.038178|  2.4254e+01|  2.4254e+01|  2.4254e+01|
|         159|  8.0330e-01|   -2.934863|    0.628050|    0.037345|  2.6680e+01|  2.6680e+01|  2.6680e+01|
|         160|  8.0472e-01|   -2.925766|    0.631939|    0.036398|  2.9348e+01|  2.9348e+01|  2.9348e+01|
|         161|  8.0418e-01|   -2.938797|    0.635816|    0.035325|  3.2282e+01|  3.2282e+01|  3.2282e+01|
|         162|  8.0511e-01|   -2.949821|    0.639655|    0.034114|  3.5511e+01|  3.5511e+01|  3.5511e+01|
|         163|  8.0476e-01|   -2.960812|    0.643505|    0.032769|  1.7755e+01|  1.7755e+01|  1.7755e+01|
|         164|  8.0425e-01|   -2.973812|    0.645302|    0.032084|  1.9531e+01|  1.9531e+01|  1.9531e+01|
|         165|  8.0527e-01|   -2.982925|    0.647198|    0.031331|  2.1484e+01|  2.1484e+01|  2.1484e+01|
|         166|  8.0478e-01|   -2.978121|    0.649198|    0.030505|  2.3632e+01|  2.3632e+01|  2.3632e+01|
|         167|  8.0604e-01|   -3.004215|    0.651310|    0.029595|  2.5996e+01|  2.5996e+01|  2.5996e+01|
|         168|  8.0554e-01|   -3.013757|    0.653548|    0.028598|  2.8595e+01|  2.8595e+01|  2.8595e+01|
|         169|  8.0642e-01|   -3.026368|    0.655950|    0.027513|  3.1455e+01|  3.1455e+01|  3.1455e+01|
|         170|  8.0610e-01|   -3.040000|    0.658590|    0.026349|  3.1455e+01|  3.4600e+01|  3.4600e+01|
|         171|  8.0703e-01|   -3.053995|    0.661706|    0.025141|  1.5727e+01|  1.7300e+01|  1.7300e+01|
|         172|  8.0659e-01|   -3.070621|    0.663142|    0.024523|  1.7300e+01|  1.9030e+01|  1.9030e+01|
|         173|  8.0719e-01|   -3.083263|    0.664707|    0.023855|  1.9030e+01|  2.0933e+01|  2.0933e+01|
|         174|  8.0671e-01|   -3.093383|    0.666457|    0.023141|  2.0933e+01|  2.3026e+01|  2.3026e+01|
|         175|  8.0777e-01|   -3.103665|    0.668444|    0.022381|  2.3026e+01|  2.5329e+01|  2.5329e+01|
|         176|  8.0728e-01|   -3.113496|    0.670688|    0.021573|  2.5329e+01|  2.7862e+01|  2.7862e+01|
|         177|  8.0680e-01|   -3.123714|    0.673251|    0.020724|  2.5329e+01|  3.0648e+01|  3.0647e+01|
|         178|  8.0661e-01|   -3.131944|    0.676371|    0.019872|  2.7862e+01|  3.3713e+01|  3.3711e+01|
|         179|  8.0752e-01|   -3.143550|    0.680314|    0.019063|  1.3931e+01|  1.6856e+01|  1.6855e+01|
|         180|  8.0705e-01|   -3.150175|    0.681914|    0.018606|  1.5324e+01|  1.8542e+01|  1.8541e+01|
|         181|  8.0835e-01|   -3.171029|    0.683540|    0.018100|  1.6856e+01|  2.0396e+01|  2.0395e+01|
|         182|  8.0789e-01|   -3.182855|    0.685332|    0.017564|  1.8542e+01|  2.2436e+01|  2.2434e+01|
|         183|  8.0906e-01|   -3.192227|    0.687393|    0.017010|  2.0396e+01|  2.4680e+01|  2.4678e+01|
|         184|  8.0859e-01|   -3.198746|    0.689795|    0.016451|  2.2436e+01|  2.7148e+01|  2.7145e+01|
|         185|  8.1024e-01|   -3.196818|    0.692625|    0.015900|  2.4680e+01|  2.9862e+01|  2.9858e+01|
|         186|  8.0973e-01|   -3.193520|    0.696002|    0.015381|  2.4680e+01|  3.2849e+01|  3.2842e+01|
|         187|  8.0977e-01|   -3.208107|    0.700109|    0.014930|  1.2340e+01|  1.6424e+01|  1.6421e+01|
|         188|  8.1071e-01|   -3.153502|    0.701461|    0.014599|  1.3574e+01|  1.8067e+01|  1.8063e+01|
|         189|  8.1100e-01|   -3.238542|    0.702689|    0.014214|  1.4931e+01|  1.9873e+01|  1.9870e+01|
|         190|  8.1121e-01|   -3.253639|    0.703964|    0.013799|  1.6424e+01|  2.1861e+01|  2.1856e+01|
|         191|  8.1235e-01|   -3.250086|    0.705449|    0.013380|  1.8067e+01|  2.4047e+01|  2.4042e+01|
|         192|  8.1185e-01|   -3.261354|    0.707234|    0.012975|  1.9873e+01|  2.6451e+01|  2.6445e+01|
|         193|  8.1302e-01|   -3.259887|    0.709315|    0.012591|  2.1861e+01|  2.9097e+01|  2.9088e+01|
|         194|  8.1255e-01|   -3.268152|    0.711778|    0.012251|  2.1861e+01|  3.2006e+01|  3.1995e+01|
|         195|  8.1375e-01|   -3.262094|    0.714769|    0.011993|  2.1861e+01|  3.2006e+01|  3.1995e+01|
|         196|  8.1336e-01|   -3.263805|    0.717524|    0.011766|  2.1861e+01|  3.2006e+01|  3.1995e+01|
|         197|  8.1418e-01|   -3.283173|    0.719861|    0.011545|  2.1861e+01|  3.2006e+01|  3.1995e+01|
|         198|  8.1370e-01|   -3.267315|    0.721577|    0.011296|  2.1861e+01|  3.2006e+01|  3.1995e+01|
|         199|  8.1483e-01|   -3.276891|    0.722636|    0.011018|  2.1861e+01|  3.2006e+01|  3.1995e+01|
|         200|  8.1432e-01|   -3.287745|    0.723198|    0.010739|  2.1861e+01|  3.2006e+01|  3.1995e+01|
|         201|  8.1387e-01|   -3.290295|    0.723424|    0.010487|  2.1861e+01|  3.2006e+01|  3.1995e+01|
|         202|  8.1476e-01|   -3.296517|    0.723516|    0.010297|  2.1861e+01|  3.2006e+01|  3.1995e+01|
|         203|  8.1431e-01|   -3.308051|    0.723540|    0.010184|  2.1861e+01|  3.2006e+01|  3.1995e+01|
|         204|  8.1424e-01|   -3.320391|    0.723410|    0.010135|  2.1861e+01|  3.2006e+01|  3.1995e+01|
|         205|  8.1455e-01|   -3.333058|    0.723219|    0.010164|  2.1861e+01|  3.2006e+01|  3.1995e+01|
|         206|  8.1420e-01|   -3.335450|    0.722981|    0.010270|  2.1861e+01|  3.2006e+01|  3.1995e+01|
|         207|  8.1517e-01|   -3.342761|    0.722813|    0.010465|  2.4047e+01|  3.5207e+01|  3.5193e+01|
|         208|  8.1477e-01|   -3.366020|    0.723170|    0.010852|  1.2023e+01|  1.7603e+01|  1.7596e+01|
|         209|  8.1431e-01|   -3.371688|    0.722941|    0.010998|  1.3226e+01|  1.9364e+01|  1.9356e+01|
|         210|  8.1498e-01|   -3.415547|    0.722683|    0.011188|  1.4548e+01|  2.1300e+01|  2.1291e+01|
|         211|  8.1456e-01|   -3.426658|    0.722468|    0.011440|  1.6003e+01|  2.3430e+01|  2.3421e+01|
|         212|  8.1492e-01|   -3.426611|    0.722274|    0.011760|  1.7603e+01|  2.5773e+01|  2.5762e+01|
|         213|  8.1510e-01|   -3.434272|    0.722040|    0.012153|  1.9364e+01|  2.8351e+01|  2.8338e+01|
|         214|  8.1469e-01|   -3.441467|    0.721783|    0.012638|  2.1300e+01|  3.1186e+01|  3.1171e+01|
|         215|  8.1569e-01|   -3.449949|    0.721512|    0.013238|  2.3430e+01|  3.4304e+01|  3.4287e+01|
|         216|  8.1526e-01|   -3.461331|    0.721336|    0.013992|  1.1715e+01|  1.7152e+01|  1.7143e+01|
|         217|  8.1606e-01|   -3.464451|    0.720943|    0.014337|  1.2887e+01|  1.8867e+01|  1.8858e+01|
|         218|  8.1565e-01|   -3.506019|    0.720506|    0.014743|  1.4175e+01|  2.0754e+01|  2.0743e+01|
|         219|  8.1687e-01|   -3.509845|    0.720075|    0.015223|  1.5593e+01|  2.2829e+01|  2.2818e+01|
|         220|  8.1643e-01|   -3.519284|    0.719631|    0.015783|  1.7152e+01|  2.5112e+01|  2.5099e+01|
|         221|  8.1621e-01|   -3.520493|    0.719088|    0.016422|  1.8867e+01|  2.7624e+01|  2.7609e+01|
|         222|  8.1700e-01|   -3.523811|    0.718390|    0.017142|  2.0754e+01|  3.0386e+01|  3.0369e+01|
|         223|  8.1668e-01|   -3.532005|    0.717539|    0.017956|  2.2829e+01|  3.3425e+01|  3.3405e+01|
|         224|  8.1746e-01|   -3.527248|    0.716622|    0.018892|  2.2829e+01|  3.3425e+01|  3.3405e+01|
|         225|  8.1750e-01|   -3.511007|    0.715628|    0.019847|  2.2829e+01|  3.3425e+01|  3.3405e+01|
|         226|  8.1801e-01|   -3.514912|    0.714605|    0.020822|  2.2829e+01|  3.3425e+01|  3.3405e+01|
|         227|  8.1759e-01|   -3.519282|    0.713550|    0.021811|  2.2829e+01|  3.3425e+01|  3.3405e+01|
|         228|  8.1787e-01|   -3.524183|    0.712316|    0.022787|  2.2829e+01|  3.3425e+01|  3.3405e+01|
|         229|  8.1823e-01|   -3.523523|    0.710906|    0.023745|  2.2829e+01|  3.3425e+01|  3.3405e+01|
|         230|  8.1783e-01|   -3.527929|    0.709375|    0.024691|  2.2829e+01|  3.3425e+01|  3.3405e+01|
|         231|  8.1870e-01|   -3.542825|    0.707783|    0.025629|  1.1415e+01|  1.6712e+01|  1.6703e+01|
|         232|  8.1844e-01|   -3.529914|    0.706718|    0.026054|  1.2556e+01|  1.8383e+01|  1.8373e+01|
|         233|  8.1918e-01|   -3.573852|    0.705537|    0.026524|  1.3812e+01|  2.0222e+01|  2.0210e+01|
|         234|  8.1877e-01|   -3.590826|    0.704310|    0.027054|  1.5193e+01|  2.2244e+01|  2.2231e+01|
|         235|  8.1870e-01|   -3.590315|    0.703053|    0.027650|  1.6712e+01|  2.4468e+01|  2.4454e+01|
|         236|  8.1939e-01|   -3.603816|    0.701678|    0.028304|  1.8383e+01|  2.6915e+01|  2.6899e+01|
|         237|  8.1898e-01|   -3.592137|    0.700208|    0.029023|  2.0222e+01|  2.9607e+01|  2.9589e+01|
|         238|  8.1985e-01|   -3.594664|    0.698731|    0.029826|  2.2244e+01|  3.2567e+01|  3.2547e+01|
|         239|  8.1945e-01|   -3.593115|    0.697314|    0.030723|  2.2244e+01|  3.2567e+01|  3.2547e+01|
|         240|  8.2048e-01|   -3.583716|    0.695898|    0.031604|  2.2244e+01|  3.2567e+01|  3.2547e+01|
|         241|  8.2007e-01|   -3.594370|    0.694441|    0.032457|  2.2244e+01|  3.2567e+01|  3.2547e+01|
|         242|  8.2047e-01|   -3.583777|    0.692858|    0.033267|  2.2244e+01|  3.2567e+01|  3.2547e+01|
|         243|  8.2082e-01|   -3.591078|    0.691107|    0.034026|  2.2244e+01|  3.2567e+01|  3.2547e+01|
|         244|  8.2041e-01|   -3.611822|    0.689318|    0.034751|  2.2244e+01|  3.2567e+01|  3.2547e+01|
|         245|  8.2154e-01|   -3.595919|    0.687544|    0.035454|  2.2244e+01|  3.2567e+01|  3.2547e+01|
|         246|  8.2114e-01|   -3.613533|    0.685850|    0.036145|  2.2244e+01|  3.2567e+01|  3.2547e+01|
|         247|  8.2187e-01|   -3.610890|    0.684194|    0.036822|  2.2244e+01|  3.2567e+01|  3.2547e+01|
|         248|  8.2215e-01|   -3.614202|    0.682642|    0.037496|  2.2244e+01|  3.2567e+01|  3.2547e+01|
|         249|  8.2236e-01|   -3.619567|    0.681123|    0.038156|  2.2244e+01|  3.2567e+01|  3.2547e+01|
|         250|  8.2196e-01|   -3.632573|    0.679677|    0.038806|  2.2244e+01|  3.2567e+01|  3.2547e+01|
|         251|  8.2281e-01|   -3.629612|    0.678308|    0.039443|  2.2244e+01|  3.2567e+01|  3.2547e+01|
|         252|  8.2243e-01|   -3.636054|    0.677015|    0.040064|  2.2244e+01|  3.2567e+01|  3.2547e+01|
|         253|  8.2322e-01|   -3.646266|    0.675807|    0.040667|  2.2244e+01|  3.2567e+01|  3.2547e+01|
|         254|  8.2283e-01|   -3.650655|    0.674600|    0.041237|  2.2244e+01|  3.2567e+01|  3.2547e+01|
|         255|  8.2344e-01|   -3.651072|    0.673376|    0.041772|  2.2244e+01|  3.2567e+01|  3.2547e+01|
|         256|  8.2401e-01|   -3.669637|    0.672147|    0.042273|  2.2244e+01|  3.2567e+01|  3.2547e+01|
|         257|  8.2384e-01|   -3.666662|    0.670871|    0.042733|  2.2244e+01|  3.2567e+01|  3.2547e+01|
|         258|  8.2356e-01|   -3.672933|    0.669624|    0.043161|  2.2244e+01|  3.2567e+01|  3.2547e+01|
|         259|  8.2426e-01|   -3.670376|    0.668386|    0.043553|  2.2244e+01|  3.2567e+01|  3.2547e+01|
|         260|  8.2387e-01|   -3.682309|    0.667137|    0.043903|  2.2244e+01|  3.2567e+01|  3.2547e+01|
|         261|  8.2482e-01|   -3.698267|    0.665924|    0.044214|  2.2244e+01|  3.2567e+01|  3.2547e+01|
|         262|  8.2447e-01|   -3.698251|    0.664793|    0.044489|  2.2244e+01|  3.2567e+01|  3.2547e+01|
|         263|  8.2502e-01|   -3.694929|    0.663735|    0.044723|  2.2244e+01|  3.2567e+01|  3.2547e+01|
|         264|  8.2522e-01|   -3.697867|    0.662770|    0.044919|  2.2244e+01|  3.2567e+01|  3.2547e+01|
|         265|  8.2540e-01|   -3.700942|    0.661926|    0.045078|  1.1122e+01|  1.6284e+01|  1.6273e+01|
|         266|  8.2501e-01|   -3.703377|    0.661365|    0.045125|  1.2234e+01|  1.7912e+01|  1.7901e+01|
|         267|  8.2559e-01|   -3.745578|    0.660788|    0.045168|  1.3458e+01|  1.9703e+01|  1.9691e+01|
|         268|  8.2521e-01|   -3.747049|    0.660260|    0.045210|  1.4803e+01|  2.1674e+01|  2.1660e+01|
|         269|  8.2588e-01|   -3.758200|    0.659792|    0.045248|  1.6284e+01|  2.3841e+01|  2.3826e+01|
|         270|  8.2551e-01|   -3.755452|    0.659340|    0.045270|  1.7912e+01|  2.6225e+01|  2.6208e+01|
|         271|  8.2602e-01|   -3.748530|    0.658886|    0.045263|  1.9703e+01|  2.8848e+01|  2.8829e+01|
|         272|  8.2615e-01|   -3.743687|    0.658494|    0.045226|  2.1674e+01|  3.1732e+01|  3.1711e+01|
|         273|  8.2639e-01|   -3.741429|    0.658236|    0.045150|  2.3841e+01|  3.4906e+01|  3.4882e+01|
|         274|  8.2641e-01|   -3.740224|    0.658127|    0.045019|  1.1921e+01|  1.7453e+01|  1.7441e+01|
|         275|  8.2677e-01|   -3.746146|    0.657859|    0.044909|  1.3113e+01|  1.9198e+01|  1.9185e+01|
|         276|  8.2706e-01|   -3.777012|    0.657546|    0.044765|  1.4424e+01|  2.1118e+01|  2.1103e+01|
|         277|  8.2692e-01|   -3.792041|    0.657268|    0.044589|  1.5866e+01|  2.3230e+01|  2.3214e+01|
|         278|  8.2769e-01|   -3.786552|    0.657063|    0.044374|  1.7453e+01|  2.5553e+01|  2.5535e+01|
|         279|  8.2728e-01|   -3.793762|    0.656924|    0.044109|  1.9198e+01|  2.8108e+01|  2.8089e+01|
|         280|  8.2691e-01|   -3.799054|    0.656846|    0.043780|  2.1118e+01|  3.0919e+01|  3.0897e+01|
|         281|  8.2762e-01|   -3.792902|    0.656887|    0.043378|  2.3230e+01|  3.4011e+01|  3.3987e+01|
|         282|  8.2724e-01|   -3.793692|    0.657139|    0.042900|  1.1615e+01|  1.7005e+01|  1.6993e+01|
|         283|  8.2797e-01|   -3.795297|    0.657202|    0.042637|  1.2776e+01|  1.8706e+01|  1.8693e+01|
|         284|  8.2767e-01|   -3.822686|    0.657283|    0.042333|  1.4054e+01|  2.0576e+01|  2.0562e+01|
|         285|  8.2823e-01|   -3.832944|    0.657412|    0.041982|  1.5459e+01|  2.2634e+01|  2.2618e+01|
|         286|  8.2823e-01|   -3.833594|    0.657610|    0.041578|  1.7005e+01|  2.4897e+01|  2.4880e+01|
|         287|  8.2855e-01|   -3.831963|    0.657889|    0.041111|  1.8706e+01|  2.7387e+01|  2.7368e+01|
|         288|  8.2819e-01|   -3.837389|    0.658259|    0.040568|  2.0576e+01|  3.0126e+01|  3.0105e+01|
|         289|  8.2866e-01|   -3.829581|    0.658734|    0.039936|  2.2634e+01|  3.3139e+01|  3.3115e+01|
|         290|  8.2830e-01|   -3.833630|    0.659342|    0.039198|  1.1317e+01|  1.6569e+01|  1.6558e+01|
|         291|  8.2858e-01|   -3.827570|    0.659631|    0.038813|  1.2449e+01|  1.8226e+01|  1.8213e+01|
|         292|  8.2858e-01|   -3.848767|    0.659973|    0.038378|  1.3694e+01|  2.0049e+01|  2.0035e+01|
|         293|  8.2822e-01|   -3.856729|    0.660368|    0.037882|  1.5063e+01|  2.2054e+01|  2.2038e+01|
|         294|  8.2887e-01|   -3.856706|    0.660823|    0.037316|  1.6569e+01|  2.4259e+01|  2.4242e+01|
|         295|  8.2850e-01|   -3.855234|    0.661353|    0.036668|  1.8226e+01|  2.6685e+01|  2.6666e+01|
|         296|  8.2816e-01|   -3.849698|    0.661980|    0.035926|  2.0049e+01|  2.9353e+01|  2.9333e+01|
|         297|  8.2885e-01|   -3.842727|    0.662730|    0.035075|  2.2054e+01|  3.2289e+01|  3.2266e+01|
|         298|  8.2851e-01|   -3.839596|    0.663613|    0.034100|  1.1027e+01|  1.6144e+01|  1.6133e+01|
|         299|  8.2936e-01|   -3.836920|    0.664059|    0.033600|  1.2130e+01|  1.7759e+01|  1.7746e+01|
|         300|  8.2900e-01|   -3.858623|    0.664562|    0.033042|  1.3342e+01|  1.9535e+01|  1.9521e+01|
|         301|  8.2981e-01|   -3.865934|    0.665121|    0.032416|  1.4677e+01|  2.1488e+01|  2.1473e+01|
|         302|  8.2943e-01|   -3.865808|    0.665745|    0.031713|  1.6144e+01|  2.3637e+01|  2.3620e+01|
|         303|  8.2908e-01|   -3.869387|    0.666445|    0.030924|  1.7759e+01|  2.6001e+01|  2.5983e+01|
|         304|  8.3009e-01|   -3.861270|    0.667235|    0.030038|  1.9535e+01|  2.8601e+01|  2.8581e+01|
|         305|  8.2973e-01|   -3.853823|    0.668123|    0.029044|  2.1488e+01|  3.1461e+01|  3.1439e+01|
|         306|  8.3035e-01|   -3.853596|    0.669114|    0.027931|  1.0744e+01|  1.5730e+01|  1.5719e+01|
|         307|  8.3000e-01|   -3.849469|    0.669601|    0.027369|  1.1819e+01|  1.7303e+01|  1.7291e+01|
|         308|  8.3040e-01|   -3.865453|    0.670128|    0.026749|  1.3000e+01|  1.9034e+01|  1.9020e+01|
|         309|  8.3014e-01|   -3.877442|    0.670705|    0.026063|  1.4300e+01|  2.0937e+01|  2.0923e+01|
|         310|  8.3074e-01|   -3.873733|    0.671353|    0.025304|  1.5730e+01|  2.3031e+01|  2.3015e+01|
|         311|  8.3038e-01|   -3.874162|    0.672096|    0.024464|  1.7303e+01|  2.5334e+01|  2.5316e+01|
|         312|  8.3115e-01|   -3.868820|    0.672947|    0.023535|  1.9034e+01|  2.7867e+01|  2.7848e+01|
|         313|  8.3169e-01|   -3.862092|    0.673916|    0.022510|  2.0937e+01|  3.0654e+01|  3.0633e+01|
|         314|  8.3132e-01|   -3.853964|    0.675022|    0.021380|  1.0469e+01|  1.5327e+01|  1.5316e+01|
|         315|  8.3199e-01|   -3.843421|    0.675561|    0.020814|  1.1515e+01|  1.6860e+01|  1.6848e+01|
|         316|  8.3163e-01|   -3.863435|    0.676155|    0.020194|  1.2667e+01|  1.8546e+01|  1.8533e+01|
|         317|  8.3227e-01|   -3.870914|    0.676808|    0.019514|  1.3934e+01|  2.0400e+01|  2.0386e+01|
|         318|  8.3191e-01|   -3.868244|    0.677547|    0.018768|  1.5327e+01|  2.2440e+01|  2.2425e+01|
|         319|  8.3221e-01|   -3.867428|    0.678391|    0.017949|  1.6860e+01|  2.4684e+01|  2.4667e+01|
|         320|  8.3189e-01|   -3.861752|    0.679352|    0.017053|  1.8546e+01|  2.7153e+01|  2.7134e+01|
|         321|  8.3239e-01|   -3.859865|    0.680429|    0.016076|  2.0400e+01|  2.9868e+01|  2.9847e+01|
|         322|  8.3208e-01|   -3.855352|    0.681633|    0.015015|  1.0200e+01|  1.4934e+01|  1.4924e+01|
|         323|  8.3197e-01|   -3.848883|    0.682219|    0.014487|  1.1220e+01|  1.6427e+01|  1.6416e+01|
|         324|  8.3237e-01|   -3.867365|    0.682842|    0.013916|  1.2342e+01|  1.8070e+01|  1.8058e+01|
|         325|  8.3203e-01|   -3.872578|    0.683536|    0.013293|  1.3576e+01|  1.9877e+01|  1.9863e+01|
|         326|  8.3243e-01|   -3.871446|    0.684318|    0.012616|  1.4934e+01|  2.1865e+01|  2.1850e+01|
|         327|  8.3210e-01|   -3.872566|    0.685217|    0.011880|  1.6427e+01|  2.4051e+01|  2.4035e+01|
|         328|  8.3176e-01|   -3.869410|    0.686234|    0.011084|  1.8070e+01|  2.6457e+01|  2.6438e+01|
|         329|  8.3214e-01|   -3.868534|    0.687379|    0.010225|  1.9877e+01|  2.9102e+01|  2.9082e+01|
|         330|  8.3181e-01|   -3.866942|    0.688648|    0.009305|  2.1865e+01|  3.2013e+01|  3.1990e+01|
|         331|  8.3210e-01|   -3.864742|    0.690052|    0.008328|  1.0932e+01|  1.6006e+01|  1.5995e+01|
|         332|  8.3178e-01|   -3.860210|    0.690741|    0.007847|  1.2026e+01|  1.7607e+01|  1.7595e+01|
|         333|  8.3145e-01|   -3.880002|    0.691478|    0.007332|  1.3228e+01|  1.9368e+01|  1.9354e+01|
|         334|  8.3189e-01|   -3.884103|    0.692289|    0.006783|  1.4551e+01|  2.1304e+01|  2.1289e+01|
|         335|  8.3158e-01|   -3.887376|    0.693206|    0.006195|  1.6006e+01|  2.3435e+01|  2.3418e+01|
|         336|  8.3148e-01|   -3.885781|    0.694242|    0.005570|  1.7607e+01|  2.5778e+01|  2.5760e+01|
|         337|  8.3187e-01|   -3.884979|    0.695401|    0.004912|  1.9368e+01|  2.8356e+01|  2.8336e+01|
|         338|  8.3158e-01|   -3.886527|    0.696696|    0.004224|  2.1304e+01|  3.1192e+01|  3.1170e+01|
|         339|  8.3227e-01|   -3.885854|    0.698156|    0.003511|  1.0652e+01|  1.5596e+01|  1.5585e+01|
|         340|  8.3195e-01|   -3.886407|    0.698874|    0.003165|  1.1717e+01|  1.7155e+01|  1.7143e+01|
|         341|  8.3244e-01|   -3.897793|    0.699659|    0.002802|  1.2889e+01|  1.8871e+01|  1.8858e+01|
|         342|  8.3211e-01|   -3.904228|    0.700539|    0.002421|  1.4178e+01|  2.0758e+01|  2.0744e+01|
|         343|  8.3252e-01|   -3.904692|    0.701536|    0.002023|  1.5596e+01|  2.2834e+01|  2.2818e+01|
|         344|  8.3220e-01|   -3.905105|    0.702666|    0.001610|  1.7155e+01|  2.5117e+01|  2.5100e+01|
|         345|  8.3269e-01|   -3.907194|    0.703926|    0.001188|  1.8871e+01|  2.7629e+01|  2.7610e+01|
|         346|  8.3237e-01|   -3.907921|    0.705306|    0.000761|  2.0758e+01|  3.0392e+01|  3.0371e+01|
|         347|  8.3205e-01|   -3.903032|    0.706796|    0.000340|  2.0758e+01|  3.0392e+01|  3.0371e+01|
|         348|  8.3232e-01|   -3.906755|    0.708241|   -0.000035|  1.0379e+01|  1.5196e+01|  1.5185e+01|
|         349|  8.3201e-01|   -3.907553|    0.708945|   -0.000213|  1.1417e+01|  1.6716e+01|  1.6704e+01|
|         350|  8.3245e-01|   -3.917564|    0.709691|   -0.000392|  1.2559e+01|  1.8387e+01|  1.8374e+01|
|         351|  8.3214e-01|   -3.922115|    0.710500|   -0.000571|  1.3814e+01|  2.0226e+01|  2.0212e+01|
|         352|  8.3183e-01|   -3.922255|    0.711388|   -0.000750|  1.5196e+01|  2.2248e+01|  2.2233e+01|
|         353|  8.3235e-01|   -3.922042|    0.712348|   -0.000926|  1.6716e+01|  2.4473e+01|  2.4456e+01|
|         354|  8.3204e-01|   -3.921091|    0.713370|   -0.001094|  1.8387e+01|  2.6921e+01|  2.6902e+01|
|         355|  8.3177e-01|   -3.923062|    0.714446|   -0.001248|  2.0226e+01|  2.9613e+01|  2.9592e+01|
|         356|  8.3240e-01|   -3.923572|    0.715578|   -0.001380|  2.0226e+01|  2.9613e+01|  2.9592e+01|
|         357|  8.3210e-01|   -3.923593|    0.716658|   -0.001473|  2.0226e+01|  2.9613e+01|  2.9592e+01|
|         358|  8.3272e-01|   -3.925469|    0.717688|   -0.001526|  2.0226e+01|  2.9613e+01|  2.9592e+01|
|         359|  8.3242e-01|   -3.926281|    0.718673|   -0.001538|  2.2248e+01|  3.2574e+01|  3.2551e+01|
|         360|  8.3289e-01|   -3.931818|    0.719705|   -0.001503|  1.1124e+01|  1.6287e+01|  1.6276e+01|
|         361|  8.3258e-01|   -3.933465|    0.720201|   -0.001475|  1.2237e+01|  1.7916e+01|  1.7903e+01|
|         362|  8.3315e-01|   -3.940949|    0.720720|   -0.001427|  1.3460e+01|  1.9707e+01|  1.9693e+01|
|         363|  8.3282e-01|   -3.944588|    0.721274|   -0.001357|  1.4806e+01|  2.1678e+01|  2.1663e+01|
|         364|  8.3335e-01|   -3.944753|    0.721868|   -0.001259|  1.6287e+01|  2.3846e+01|  2.3829e+01|
|         365|  8.3304e-01|   -3.946449|    0.722497|   -0.001127|  1.7916e+01|  2.6230e+01|  2.6212e+01|
|         366|  8.3274e-01|   -3.947409|    0.723154|   -0.000954|  1.9707e+01|  2.8853e+01|  2.8833e+01|
|         367|  8.3310e-01|   -3.947416|    0.723846|   -0.000734|  9.8536e+00|  1.4427e+01|  1.4417e+01|
|         368|  8.3280e-01|   -3.949617|    0.724192|   -0.000618|  4.9268e+00|  7.2133e+00|  7.2083e+00|
|         369|  8.3300e-01|   -3.952367|    0.724365|   -0.000559|  2.4634e+00|  3.6067e+00|  3.6041e+00|
|         370|  8.3233e-01|   -3.953845|    0.724451|   -0.000529|  1.2317e+00|  1.8033e+00|  1.8021e+00|
|         371|  8.3155e-01|   -3.954567|    0.724494|   -0.000514|  1.0000e+00|  1.0000e+00|  1.0000e+00|
|         372|  8.3073e-01|   -3.954774|    0.724512|   -0.000507|  1.0000e+00|  1.0000e+00|  1.0000e+00|
|         373|  8.3054e-01|   -3.954889|    0.724530|   -0.000499|  1.0000e+00|  1.0000e+00|  1.0000e+00|
|         374|  8.2967e-01|   -3.954998|    0.724547|   -0.000492|  1.0000e+00|  1.0000e+00|  1.0000e+00|
|         375|  8.2908e-01|   -3.955095|    0.724563|   -0.000484|  1.0000e+00|  1.0000e+00|  1.0000e+00|
|         376|  8.2877e-01|   -3.955166|    0.724580|   -0.000476|  1.0000e+00|  1.0000e+00|  1.0000e+00|
|         377|  8.2793e-01|   -3.955225|    0.724596|   -0.000469|  1.0000e+00|  1.0000e+00|  1.0000e+00|
|         378|  8.2709e-01|   -3.955269|    0.724612|   -0.000461|  1.0000e+00|  1.0000e+00|  1.0000e+00|
|         379|  8.2625e-01|   -3.955308|    0.724627|   -0.000453|  1.0000e+00|  1.0000e+00|  1.0000e+00|
|         380|  8.2612e-01|   -3.955340|    0.724642|   -0.000445|  1.0000e+00|  1.0000e+00|  1.0000e+00|
|         381|  8.2530e-01|   -3.955376|    0.724657|   -0.000437|  1.0000e+00|  1.0000e+00|  1.0000e+00|
|         382|  8.2447e-01|   -3.955410|    0.724672|   -0.000429|  1.0000e+00|  1.0000e+00|  1.0000e+00|
|         383|  8.2465e-01|   -3.955433|    0.724687|   -0.000421|  1.0000e+00|  1.0000e+00|  1.0000e+00|
|         384|  8.2390e-01|   -3.955449|    0.724702|   -0.000413|  1.0000e+00|  1.0000e+00|  1.0000e+00|
|         385|  8.2308e-01|   -3.955462|    0.724717|   -0.000405|  1.0000e+00|  1.0000e+00|  1.0000e+00|
|         386|  8.2309e-01|   -3.955466|    0.724732|   -0.000396|  1.0000e+00|  1.0000e+00|  1.0000e+00|
|         387|  8.2241e-01|   -3.955477|    0.724747|   -0.000388|  1.0000e+00|  1.0000e+00|  1.0000e+00|
|         388|  8.2161e-01|   -3.955480|    0.724762|   -0.000380|  1.0000e+00|  1.0000e+00|  1.0000e+00|
|         389|  8.2090e-01|   -3.955474|    0.724776|   -0.000371|  1.0000e+00|  1.0000e+00|  1.0000e+00|
|         390|  8.2110e-01|   -3.955461|    0.724791|   -0.000363|  1.0000e+00|  1.0000e+00|  1.0000e+00|
|         391|  8.2029e-01|   -3.955444|    0.724805|   -0.000354|  1.0000e+00|  1.0000e+00|  1.0000e+00|
|         392|  8.1950e-01|   -3.955423|    0.724820|   -0.000346|  1.0000e+00|  1.0000e+00|  1.0000e+00|
|         393|  8.1979e-01|   -3.955388|    0.724834|   -0.000337|  1.1000e+00|  1.1000e+00|  1.1000e+00|
|         394|  8.1901e-01|   -3.955342|    0.724850|   -0.000328|  1.2100e+00|  1.2100e+00|  1.2100e+00|
|         395|  8.1822e-01|   -3.955282|    0.724868|   -0.000317|  1.3310e+00|  1.3310e+00|  1.3310e+00|
|         396|  8.1838e-01|   -3.955214|    0.724888|   -0.000305|  1.4641e+00|  1.4641e+00|  1.4641e+00|
|         397|  8.1760e-01|   -3.955139|    0.724911|   -0.000292|  1.6105e+00|  1.6105e+00|  1.6105e+00|
|         398|  8.1748e-01|   -3.955052|    0.724937|   -0.000277|  1.7716e+00|  1.7716e+00|  1.7716e+00|
|         399|  8.1679e-01|   -3.954966|    0.724966|   -0.000261|  1.9487e+00|  1.9487e+00|  1.9487e+00|
|         400|  8.1638e-01|   -3.954880|    0.725000|   -0.000243|  2.1436e+00|  2.1436e+00|  2.1436e+00|
|         401|  8.1626e-01|   -3.954786|    0.725038|   -0.000223|  2.3579e+00|  2.3579e+00|  2.3579e+00|
|         402|  8.1558e-01|   -3.954670|    0.725081|   -0.000200|  2.5937e+00|  2.5937e+00|  2.5937e+00|
|         403|  8.1548e-01|   -3.954525|    0.725130|   -0.000175|  2.8531e+00|  2.8531e+00|  2.8531e+00|
|         404|  8.1482e-01|   -3.954358|    0.725185|   -0.000147|  3.1384e+00|  3.1384e+00|  3.1384e+00|
|         405|  8.1490e-01|   -3.954145|    0.725246|   -0.000116|  3.4523e+00|  3.4523e+00|  3.4523e+00|
|         406|  8.1432e-01|   -3.953982|    0.725315|   -0.000081|  3.7975e+00|  3.7975e+00|  3.7975e+00|
|         407|  8.1430e-01|   -3.953800|    0.725390|   -0.000043|  4.1772e+00|  4.1772e+00|  4.1772e+00|
|         408|  8.1391e-01|   -3.953674|    0.725473|    0.000001|  4.5950e+00|  4.5950e+00|  4.5950e+00|
|         409|  8.1394e-01|   -3.953591|    0.725563|    0.000049|  5.0545e+00|  5.0545e+00|  5.0545e+00|
|         410|  8.1376e-01|   -3.953444|    0.725659|    0.000103|  5.5599e+00|  5.5599e+00|  5.5599e+00|
|         411|  8.1330e-01|   -3.953148|    0.725762|    0.000164|  6.1159e+00|  6.1159e+00|  6.1159e+00|
|         412|  8.1364e-01|   -3.952926|    0.725870|    0.000231|  6.7275e+00|  6.7275e+00|  6.7275e+00|
|         413|  8.1329e-01|   -3.952798|    0.725984|    0.000307|  7.4002e+00|  7.4002e+00|  7.4002e+00|
|         414|  8.1350e-01|   -3.952588|    0.726103|    0.000391|  8.1403e+00|  8.1403e+00|  8.1403e+00|
|         415|  8.1324e-01|   -3.952343|    0.726227|    0.000485|  8.9543e+00|  8.9543e+00|  8.9543e+00|
|         416|  8.1375e-01|   -3.952156|    0.726355|    0.000590|  9.8497e+00|  9.8497e+00|  9.8497e+00|
|         417|  8.1350e-01|   -3.951991|    0.726487|    0.000709|  1.0835e+01|  1.0835e+01|  1.0835e+01|
|         418|  8.1405e-01|   -3.951918|    0.726626|    0.000843|  1.1918e+01|  1.1918e+01|  1.1918e+01|
|         419|  8.1397e-01|   -3.951743|    0.726774|    0.000995|  1.3110e+01|  1.3110e+01|  1.3110e+01|
|         420|  8.1416e-01|   -3.951682|    0.726938|    0.001169|  1.4421e+01|  1.4421e+01|  1.4421e+01|
|         421|  8.1468e-01|   -3.951500|    0.727123|    0.001369|  1.5863e+01|  1.5863e+01|  1.5863e+01|
|         422|  8.1446e-01|   -3.951683|    0.727333|    0.001597|  1.7449e+01|  1.7449e+01|  1.7449e+01|
|         423|  8.1503e-01|   -3.952445|    0.727569|    0.001859|  1.9194e+01|  1.9194e+01|  1.9194e+01|
|         424|  8.1478e-01|   -3.953193|    0.727829|    0.002160|  2.1114e+01|  2.1114e+01|  2.1114e+01|
|         425|  8.1510e-01|   -3.954380|    0.728109|    0.002504|  2.3225e+01|  2.3225e+01|  2.3225e+01|
|         426|  8.1488e-01|   -3.955329|    0.728402|    0.002897|  2.5548e+01|  2.5548e+01|  2.5548e+01|
|         427|  8.1501e-01|   -3.957492|    0.728703|    0.003347|  2.8102e+01|  2.8102e+01|  2.8102e+01|
|         428|  8.1515e-01|   -3.959686|    0.729011|    0.003858|  2.8102e+01|  2.8102e+01|  2.8102e+01|
|         429|  8.1493e-01|   -3.962832|    0.729296|    0.004383|  2.8102e+01|  2.8102e+01|  2.8102e+01|
|         430|  8.1493e-01|   -3.966062|    0.729566|    0.004920|  2.8102e+01|  2.8102e+01|  2.8102e+01|
|         431|  8.1526e-01|   -3.969351|    0.729812|    0.005466|  3.0913e+01|  3.0913e+01|  3.0913e+01|
|         432|  8.1505e-01|   -3.973040|    0.730043|    0.006079|  1.5456e+01|  1.5456e+01|  1.5456e+01|
|         433|  8.1560e-01|   -3.976218|    0.730154|    0.006386|  1.7002e+01|  1.7002e+01|  1.7002e+01|
|         434|  8.1539e-01|   -3.978899|    0.730262|    0.006728|  1.8702e+01|  1.8702e+01|  1.8702e+01|
|         435|  8.1603e-01|   -3.980836|    0.730371|    0.007107|  2.0572e+01|  2.0572e+01|  2.0572e+01|
|         436|  8.1582e-01|   -3.982207|    0.730480|    0.007528|  2.2630e+01|  2.2630e+01|  2.2630e+01|
|         437|  8.1638e-01|   -3.983885|    0.730582|    0.007994|  2.4893e+01|  2.4893e+01|  2.4893e+01|
|         438|  8.1627e-01|   -3.985893|    0.730672|    0.008509|  2.7382e+01|  2.7382e+01|  2.7382e+01|
|         439|  8.1605e-01|   -3.988181|    0.730736|    0.009077|  3.0120e+01|  3.0120e+01|  3.0120e+01|
|         440|  8.1680e-01|   -3.991266|    0.730759|    0.009702|  3.0120e+01|  3.0120e+01|  3.0120e+01|
|         441|  8.1658e-01|   -3.994341|    0.730728|    0.010325|  3.0120e+01|  3.0120e+01|  3.0120e+01|
|         442|  8.1709e-01|   -3.997611|    0.730644|    0.010944|  1.5060e+01|  1.5060e+01|  1.5060e+01|
|         443|  8.1688e-01|   -4.001264|    0.730594|    0.011251|  1.6566e+01|  1.6566e+01|  1.6566e+01|
|         444|  8.1721e-01|   -4.004580|    0.730521|    0.011588|  1.8223e+01|  1.8223e+01|  1.8223e+01|
|         445|  8.1757e-01|   -4.006650|    0.730422|    0.011957|  2.0045e+01|  2.0045e+01|  2.0045e+01|
|         446|  8.1747e-01|   -4.008032|    0.730287|    0.012360|  2.2049e+01|  2.2049e+01|  2.2049e+01|
|         447|  8.1799e-01|   -4.009448|    0.730110|    0.012798|  2.4254e+01|  2.4254e+01|  2.4254e+01|
|         448|  8.1776e-01|   -4.011208|    0.729885|    0.013274|  2.6680e+01|  2.6680e+01|  2.6680e+01|
|         449|  8.1820e-01|   -4.015596|    0.729605|    0.013790|  2.9348e+01|  2.9348e+01|  2.9348e+01|
|         450|  8.1798e-01|   -4.018711|    0.729265|    0.014348|  3.2282e+01|  3.2282e+01|  3.2282e+01|
|         451|  8.1777e-01|   -4.021699|    0.728861|    0.014950|  1.6141e+01|  1.6141e+01|  1.6141e+01|
|         452|  8.1804e-01|   -4.025876|    0.728662|    0.015246|  1.7755e+01|  1.7755e+01|  1.7755e+01|
|         453|  8.1783e-01|   -4.030661|    0.728434|    0.015569|  1.9531e+01|  1.9531e+01|  1.9531e+01|
|         454|  8.1823e-01|   -4.033172|    0.728174|    0.015920|  2.1484e+01|  2.1484e+01|  2.1484e+01|
|         455|  8.1802e-01|   -4.034947|    0.727875|    0.016301|  2.3632e+01|  2.3632e+01|  2.3632e+01|
|         456|  8.1839e-01|   -4.036781|    0.727528|    0.016711|  2.5996e+01|  2.5996e+01|  2.5996e+01|
|         457|  8.1818e-01|   -4.039216|    0.727126|    0.017152|  2.8595e+01|  2.8595e+01|  2.8595e+01|
|         458|  8.1863e-01|   -4.042298|    0.726663|    0.017624|  3.1455e+01|  3.1455e+01|  3.1455e+01|
|         459|  8.1842e-01|   -4.045410|    0.726128|    0.018127|  1.5727e+01|  1.5727e+01|  1.5727e+01|
|         460|  8.1871e-01|   -4.048405|    0.725865|    0.018373|  1.7300e+01|  1.7300e+01|  1.7300e+01|
|         461|  8.1872e-01|   -4.052862|    0.725566|    0.018639|  1.9030e+01|  1.9030e+01|  1.9030e+01|
|         462|  8.1851e-01|   -4.055709|    0.725231|    0.018925|  2.0933e+01|  2.0933e+01|  2.0933e+01|
|         463|  8.1899e-01|   -4.057475|    0.724858|    0.019233|  2.3026e+01|  2.3026e+01|  2.3026e+01|
|         464|  8.1896e-01|   -4.059561|    0.724439|    0.019563|  2.5329e+01|  2.5329e+01|  2.5329e+01|
|         465|  8.1919e-01|   -4.062427|    0.723976|    0.019914|  2.7862e+01|  2.7862e+01|  2.7862e+01|
|         466|  8.1898e-01|   -4.065502|    0.723467|    0.020288|  3.0648e+01|  3.0648e+01|  3.0648e+01|
|         467|  8.1921e-01|   -4.068752|    0.722913|    0.020684|  3.0648e+01|  3.0648e+01|  3.0648e+01|
|         468|  8.1901e-01|   -4.072261|    0.722369|    0.021064|  3.0648e+01|  3.0648e+01|  3.0648e+01|
|         469|  8.1943e-01|   -4.076195|    0.721836|    0.021431|  3.0648e+01|  3.0648e+01|  3.0648e+01|
|         470|  8.1922e-01|   -4.080060|    0.721315|    0.021783|  1.5324e+01|  1.5324e+01|  1.5324e+01|
|         471|  8.1902e-01|   -4.083954|    0.721064|    0.021955|  1.6856e+01|  1.6856e+01|  1.6856e+01|
|         472|  8.1916e-01|   -4.088289|    0.720787|    0.022140|  1.8542e+01|  1.8542e+01|  1.8542e+01|
|         473|  8.1924e-01|   -4.090893|    0.720484|    0.022340|  2.0396e+01|  2.0396e+01|  2.0396e+01|
|         474|  8.1904e-01|   -4.092617|    0.720154|    0.022552|  2.2436e+01|  2.2436e+01|  2.2436e+01|
|         475|  8.1958e-01|   -4.094552|    0.719795|    0.022778|  2.4680e+01|  2.4680e+01|  2.4680e+01|
|         476|  8.1938e-01|   -4.096765|    0.719402|    0.023017|  2.7148e+01|  2.7148e+01|  2.7148e+01|
|         477|  8.1989e-01|   -4.099389|    0.718974|    0.023266|  2.9862e+01|  2.9862e+01|  2.9862e+01|
|         478|  8.1968e-01|   -4.102290|    0.718505|    0.023526|  1.4931e+01|  1.4931e+01|  1.4931e+01|
|         479|  8.2022e-01|   -4.105387|    0.718277|    0.023651|  1.6424e+01|  1.6424e+01|  1.6424e+01|
|         480|  8.2001e-01|   -4.108983|    0.718024|    0.023786|  1.8067e+01|  1.8067e+01|  1.8067e+01|
|         481|  8.2001e-01|   -4.111556|    0.717743|    0.023929|  1.9873e+01|  1.9873e+01|  1.9873e+01|
|         482|  8.2049e-01|   -4.112993|    0.717432|    0.024079|  2.1861e+01|  2.1861e+01|  2.1861e+01|
|         483|  8.2029e-01|   -4.114490|    0.717086|    0.024237|  2.4047e+01|  2.4047e+01|  2.4047e+01|
|         484|  8.2088e-01|   -4.116298|    0.716702|    0.024402|  2.6451e+01|  2.6451e+01|  2.6451e+01|
|         485|  8.2078e-01|   -4.118393|    0.716272|    0.024571|  2.9097e+01|  2.9097e+01|  2.9097e+01|
|         486|  8.2102e-01|   -4.120809|    0.715788|    0.024744|  2.9097e+01|  2.9097e+01|  2.9097e+01|
|         487|  8.2144e-01|   -4.123607|    0.715293|    0.024904|  2.9097e+01|  2.9097e+01|  2.9097e+01|
|         488|  8.2123e-01|   -4.126231|    0.714786|    0.025050|  2.9097e+01|  2.9097e+01|  2.9097e+01|
|         489|  8.2152e-01|   -4.128992|    0.714267|    0.025184|  2.9097e+01|  2.9097e+01|  2.9097e+01|
|         490|  8.2131e-01|   -4.131596|    0.713734|    0.025305|  2.9097e+01|  2.9097e+01|  2.9097e+01|
|         491|  8.2171e-01|   -4.133889|    0.713190|    0.025414|  1.4548e+01|  1.4548e+01|  1.4548e+01|
|         492|  8.2150e-01|   -4.136320|    0.712918|    0.025465|  1.6003e+01|  1.6003e+01|  1.6003e+01|
|         493|  8.2180e-01|   -4.138972|    0.712612|    0.025518|  1.7603e+01|  1.7603e+01|  1.7603e+01|
|         494|  8.2160e-01|   -4.141249|    0.712273|    0.025572|  1.9364e+01|  1.9364e+01|  1.9364e+01|
|         495|  8.2202e-01|   -4.142223|    0.711897|    0.025625|  2.1300e+01|  2.1300e+01|  2.1300e+01|
|         496|  8.2182e-01|   -4.143296|    0.711482|    0.025678|  2.3430e+01|  2.3430e+01|  2.3430e+01|
|         497|  8.2205e-01|   -4.144132|    0.711021|    0.025728|  2.5773e+01|  2.5773e+01|  2.5773e+01|
|         498|  8.2184e-01|   -4.144974|    0.710512|    0.025775|  2.8351e+01|  2.8351e+01|  2.8351e+01|
|         499|  8.2213e-01|   -4.146125|    0.709954|    0.025815|  2.8351e+01|  2.8351e+01|  2.8351e+01|
|         500|  8.2193e-01|   -4.147275|    0.709401|    0.025846|  2.8351e+01|  2.8351e+01|  2.8351e+01|
+-----------------------------------------------------------------------+
|        File Writing Summary       |              Filename             |
+-----------------------------------------------------------------------+
|SU2 binary restart                 |restart_flow.dat                   |

Writing the forces breakdown file (forces_breakdown.dat).
|Paraview                           |flow.vtu                           |

Writing the forces breakdown file (forces_breakdown.dat).
|Paraview surface                   |surface_flow.vtu                   |

Writing the forces breakdown file (forces_breakdown.dat).
+-----------------------------------------------------------------------+
+-------------------------------------------------------------------------------------------------------+
|  Inner_Iter|   Time(sec)|    rms[Rho]|          CL|          CD|     Min CFL|     Max CFL|     Avg CFL|
+-------------------------------------------------------------------------------------------------------+
|         501|  8.2362e-01|   -4.148811|    0.708857|    0.025867|  2.8351e+01|  2.8351e+01|  2.8351e+01|
|         502|  8.2341e-01|   -4.148928|    0.708324|    0.025880|  2.8351e+01|  2.8351e+01|  2.8351e+01|
|         503|  8.2382e-01|   -4.149939|    0.707805|    0.025885|  1.4175e+01|  1.4175e+01|  1.4175e+01|
|         504|  8.2360e-01|   -4.149960|    0.707552|    0.025884|  1.5593e+01|  1.5593e+01|  1.5593e+01|
|         505|  8.2401e-01|   -4.153220|    0.707277|    0.025882|  1.7152e+01|  1.7152e+01|  1.7152e+01|
|         506|  8.2381e-01|   -4.156768|    0.706979|    0.025877|  1.8867e+01|  1.8867e+01|  1.8867e+01|
|         507|  8.2417e-01|   -4.157535|    0.706657|    0.025867|  2.0754e+01|  2.0754e+01|  2.0754e+01|
|         508|  8.2397e-01|   -4.158327|    0.706309|    0.025851|  2.2829e+01|  2.2829e+01|  2.2829e+01|
|         509|  8.2416e-01|   -4.158331|    0.705937|    0.025828|  2.5112e+01|  2.5112e+01|  2.5112e+01|
|         510|  8.2396e-01|   -4.157743|    0.705541|    0.025796|  2.7624e+01|  2.7624e+01|  2.7624e+01|
|         511|  8.2384e-01|   -4.156418|    0.705124|    0.025752|  2.7624e+01|  2.7624e+01|  2.7624e+01|
|         512|  8.2406e-01|   -4.154791|    0.704728|    0.025699|  2.7624e+01|  2.7624e+01|  2.7624e+01|
|         513|  8.2387e-01|   -4.154129|    0.704351|    0.025637|  3.0386e+01|  3.0386e+01|  3.0386e+01|
|         514|  8.2428e-01|   -4.155432|    0.703957|    0.025559|  1.5193e+01|  1.5193e+01|  1.5193e+01|
|         515|  8.2406e-01|   -4.153554|    0.703770|    0.025517|  1.6712e+01|  1.6712e+01|  1.6712e+01|
|         516|  8.2387e-01|   -4.158585|    0.703565|    0.025468|  1.8383e+01|  1.8383e+01|  1.8383e+01|
|         517|  8.2435e-01|   -4.162998|    0.703342|    0.025410|  2.0222e+01|  2.0222e+01|  2.0222e+01|
|         518|  8.2415e-01|   -4.163343|    0.703102|    0.025342|  2.2244e+01|  2.2244e+01|  2.2244e+01|
|         519|  8.2468e-01|   -4.163579|    0.702844|    0.025262|  2.4468e+01|  2.4468e+01|  2.4468e+01|
|         520|  8.2448e-01|   -4.161874|    0.702574|    0.025166|  2.6915e+01|  2.6915e+01|  2.6915e+01|
|         521|  8.2498e-01|   -4.160472|    0.702295|    0.025051|  2.9607e+01|  2.9607e+01|  2.9607e+01|
|         522|  8.2476e-01|   -4.157517|    0.702012|    0.024915|  1.4803e+01|  1.4803e+01|  1.4803e+01|
|         523|  8.2456e-01|   -4.154498|    0.701881|    0.024844|  1.6284e+01|  1.6284e+01|  1.6284e+01|
|         524|  8.2516e-01|   -4.162085|    0.701743|    0.024764|  1.7912e+01|  1.7912e+01|  1.7912e+01|
|         525|  8.2496e-01|   -4.166629|    0.701598|    0.024671|  1.9703e+01|  1.9703e+01|  1.9703e+01|
|         526|  8.2534e-01|   -4.165158|    0.701446|    0.024565|  2.1674e+01|  2.1674e+01|  2.1674e+01|
|         527|  8.2515e-01|   -4.165059|    0.701290|    0.024443|  2.3841e+01|  2.3841e+01|  2.3841e+01|
|         528|  8.2544e-01|   -4.163035|    0.701126|    0.024303|  2.6225e+01|  2.6225e+01|  2.6225e+01|
|         529|  8.2553e-01|   -4.159222|    0.700956|    0.024140|  2.8848e+01|  2.8848e+01|  2.8848e+01|
|         530|  8.2565e-01|   -4.156071|    0.700782|    0.023952|  2.8848e+01|  2.8848e+01|  2.8848e+01|
|         531|  8.2561e-01|   -4.149164|    0.700624|    0.023753|  2.8848e+01|  2.8848e+01|  2.8848e+01|
|         532|  8.2589e-01|   -4.145886|    0.700478|    0.023545|  2.8848e+01|  2.8848e+01|  2.8848e+01|
|         533|  8.2609e-01|   -4.144431|    0.700345|    0.023328|  2.8848e+01|  2.8848e+01|  2.8848e+01|
|         534|  8.2597e-01|   -4.142237|    0.700219|    0.023101|  2.8848e+01|  2.8848e+01|  2.8848e+01|
|         535|  8.2636e-01|   -4.138814|    0.700097|    0.022866|  3.1732e+01|  3.1732e+01|  3.1732e+01|
|         536|  8.2617e-01|   -4.138198|    0.699965|    0.022597|  1.5866e+01|  1.5866e+01|  1.5866e+01|
|         537|  8.2616e-01|   -4.129394|    0.699900|    0.022461|  1.7453e+01|  1.7453e+01|  1.7453e+01|
|         538|  8.2636e-01|   -4.140663|    0.699829|    0.022309|  1.9198e+01|  1.9198e+01|  1.9198e+01|
|         539|  8.2628e-01|   -4.146492|    0.699754|    0.022138|  2.1118e+01|  2.1118e+01|  2.1118e+01|
|         540|  8.2657e-01|   -4.144507|    0.699677|    0.021947|  2.3230e+01|  2.3230e+01|  2.3230e+01|
|         541|  8.2681e-01|   -4.140851|    0.699608|    0.021731|  2.5553e+01|  2.5553e+01|  2.5553e+01|
|         542|  8.2661e-01|   -4.134153|    0.699547|    0.021488|  2.8108e+01|  2.8108e+01|  2.8108e+01|
|         543|  8.2700e-01|   -4.121435|    0.699508|    0.021215|  3.0919e+01|  3.0919e+01|  3.0919e+01|
|         544|  8.2680e-01|   -4.103058|    0.699506|    0.020906|  3.0919e+01|  3.0919e+01|  3.0919e+01|
|         545|  8.2666e-01|   -4.086862|    0.699537|    0.020590|  3.0919e+01|  3.0919e+01|  3.0919e+01|
|         546|  8.2699e-01|   -4.077100|    0.699596|    0.020267|  3.4011e+01|  3.4011e+01|  3.4011e+01|
|         547|  8.2680e-01|   -4.071788|    0.699685|    0.019904|  1.7005e+01|  1.7005e+01|  1.7005e+01|
|         548|  8.2718e-01|   -4.064057|    0.699739|    0.019721|  1.8706e+01|  1.8706e+01|  1.8706e+01|
|         549|  8.2710e-01|   -4.093419|    0.699801|    0.019518|  2.0576e+01|  2.0576e+01|  2.0576e+01|
|         550|  8.2725e-01|   -4.100532|    0.699871|    0.019292|  2.2634e+01|  2.2634e+01|  2.2634e+01|
|         551|  8.2721e-01|   -4.101714|    0.699958|    0.019041|  2.4897e+01|  2.4897e+01|  2.4897e+01|
|         552|  8.2742e-01|   -4.094561|    0.700065|    0.018759|  2.7387e+01|  2.7387e+01|  2.7387e+01|
|         553|  8.2724e-01|   -4.088500|    0.700197|    0.018445|  3.0126e+01|  3.0126e+01|  3.0126e+01|
|         554|  8.2744e-01|   -4.073513|    0.700358|    0.018094|  3.3139e+01|  3.3139e+01|  3.3139e+01|
|         555|  8.2726e-01|   -4.066439|    0.700545|    0.017703|  1.6569e+01|  1.6569e+01|  1.6569e+01|
|         556|  8.2706e-01|   -4.049199|    0.700640|    0.017506|  1.8226e+01|  1.8226e+01|  1.8226e+01|
|         557|  8.2727e-01|   -4.078380|    0.700743|    0.017289|  2.0049e+01|  2.0049e+01|  2.0049e+01|
|         558|  8.2708e-01|   -4.097352|    0.700859|    0.017049|  2.2054e+01|  2.2054e+01|  2.2054e+01|
|         559|  8.2724e-01|   -4.099936|    0.700987|    0.016783|  2.4259e+01|  2.4259e+01|  2.4259e+01|
|         560|  8.2706e-01|   -4.090998|    0.701127|    0.016488|  2.6685e+01|  2.6685e+01|  2.6685e+01|
|         561|  8.2688e-01|   -4.088228|    0.701285|    0.016161|  2.9353e+01|  2.9353e+01|  2.9353e+01|
|         562|  8.2707e-01|   -4.084295|    0.701457|    0.015800|  3.2289e+01|  3.2289e+01|  3.2289e+01|
|         563|  8.2689e-01|   -4.079225|    0.701659|    0.015402|  1.6144e+01|  1.6144e+01|  1.6144e+01|
|         564|  8.2670e-01|   -4.061677|    0.701764|    0.015203|  1.7759e+01|  1.7759e+01|  1.7759e+01|
|         565|  8.2706e-01|   -4.089557|    0.701885|    0.014985|  1.9535e+01|  1.9535e+01|  1.9535e+01|
|         566|  8.2688e-01|   -4.108033|    0.702027|    0.014747|  2.1488e+01|  2.1488e+01|  2.1488e+01|
|         567|  8.2727e-01|   -4.104152|    0.702195|    0.014485|  2.3637e+01|  2.3637e+01|  2.3637e+01|
|         568|  8.2709e-01|   -4.106105|    0.702397|    0.014198|  2.6001e+01|  2.6001e+01|  2.6001e+01|
|         569|  8.2749e-01|   -4.099255|    0.702632|    0.013885|  2.8601e+01|  2.8601e+01|  2.8601e+01|
|         570|  8.2730e-01|   -4.096719|    0.702900|    0.013543|  3.1461e+01|  3.1461e+01|  3.1461e+01|
|         571|  8.2719e-01|   -4.082956|    0.703201|    0.013173|  3.1461e+01|  3.1461e+01|  3.1461e+01|
|         572|  8.2765e-01|   -4.075784|    0.703509|    0.012808|  3.1461e+01|  3.1461e+01|  3.1461e+01|
|         573|  8.2747e-01|   -4.073928|    0.703824|    0.012451|  3.1461e+01|  3.1461e+01|  3.1461e+01|
|         574|  8.2787e-01|   -4.072776|    0.704149|    0.012101|  3.1461e+01|  3.1461e+01|  3.1461e+01|
|         575|  8.2769e-01|   -4.077989|    0.704480|    0.011759|  3.1461e+01|  3.1461e+01|  3.1461e+01|
|         576|  8.2795e-01|   -4.082000|    0.704820|    0.011425|  3.1461e+01|  3.1461e+01|  3.1461e+01|
|         577|  8.2796e-01|   -4.083128|    0.705156|    0.011102|  3.1461e+01|  3.1461e+01|  3.1461e+01|
|         578|  8.2814e-01|   -4.093892|    0.705493|    0.010789|  1.5730e+01|  1.5730e+01|  1.5730e+01|
|         579|  8.2823e-01|   -4.089903|    0.705655|    0.010635|  1.7303e+01|  1.7303e+01|  1.7303e+01|
|         580|  8.2830e-01|   -4.124053|    0.705831|    0.010471|  1.9034e+01|  1.9034e+01|  1.9034e+01|
|         581|  8.2852e-01|   -4.134848|    0.706022|    0.010295|  2.0937e+01|  2.0937e+01|  2.0937e+01|
|         582|  8.2833e-01|   -4.140492|    0.706228|    0.010107|  2.3031e+01|  2.3031e+01|  2.3031e+01|
|         583|  8.2857e-01|   -4.142495|    0.706458|    0.009908|  2.5334e+01|  2.5334e+01|  2.5334e+01|
|         584|  8.2839e-01|   -4.141282|    0.706707|    0.009697|  2.7867e+01|  2.7867e+01|  2.7867e+01|
|         585|  8.2859e-01|   -4.139670|    0.706989|    0.009476|  3.0654e+01|  3.0654e+01|  3.0654e+01|
|         586|  8.2841e-01|   -4.135390|    0.707303|    0.009247|  3.0654e+01|  3.0654e+01|  3.0654e+01|
|         587|  8.2866e-01|   -4.140924|    0.707620|    0.009032|  3.0654e+01|  3.0654e+01|  3.0654e+01|
|         588|  8.2848e-01|   -4.144003|    0.707938|    0.008832|  3.0654e+01|  3.0654e+01|  3.0654e+01|
|         589|  8.2830e-01|   -4.149041|    0.708252|    0.008646|  3.0654e+01|  3.0654e+01|  3.0654e+01|
|         590|  8.2851e-01|   -4.153292|    0.708564|    0.008476|  3.0654e+01|  3.0654e+01|  3.0654e+01|
|         591|  8.2833e-01|   -4.161685|    0.708869|    0.008319|  1.5327e+01|  1.5327e+01|  1.5327e+01|
|         592|  8.2855e-01|   -4.167580|    0.709027|    0.008244|  1.6860e+01|  1.6860e+01|  1.6860e+01|
|         593|  8.2837e-01|   -4.185213|    0.709193|    0.008167|  1.8546e+01|  1.8546e+01|  1.8546e+01|
|         594|  8.2819e-01|   -4.193828|    0.709371|    0.008088|  2.0400e+01|  2.0400e+01|  2.0400e+01|
|         595|  8.2845e-01|   -4.191684|    0.709572|    0.008007|  1.0200e+01|  1.0200e+01|  1.0200e+01|
|         596|  8.2824e-01|   -4.192651|    0.709672|    0.007967|  5.1001e+00|  5.1001e+00|  5.1001e+00|
|         597|  8.2790e-01|   -4.200554|    0.709723|    0.007948|  2.5500e+00|  2.5500e+00|  2.5500e+00|
|         598|  8.2816e-01|   -4.206147|    0.709749|    0.007938|  1.2750e+00|  1.2750e+00|  1.2750e+00|
|         599|  8.2763e-01|   -4.208720|    0.709762|    0.007933|  1.0000e+00|  1.0000e+00|  1.0000e+00|
|         600|  8.2710e-01|   -4.210015|    0.709772|    0.007930|  1.0000e+00|  1.0000e+00|  1.0000e+00|
|         601|  8.2733e-01|   -4.210914|    0.709782|    0.007926|  1.0000e+00|  1.0000e+00|  1.0000e+00|
|         602|  8.2681e-01|   -4.211724|    0.709792|    0.007922|  1.0000e+00|  1.0000e+00|  1.0000e+00|
|         603|  8.2628e-01|   -4.212448|    0.709802|    0.007918|  1.1000e+00|  1.1000e+00|  1.1000e+00|
|         604|  8.2647e-01|   -4.213037|    0.709812|    0.007914|  1.2100e+00|  1.2100e+00|  1.2100e+00|
|         605|  8.2594e-01|   -4.213580|    0.709824|    0.007910|  1.3310e+00|  1.3310e+00|  1.3310e+00|
|         606|  8.2541e-01|   -4.214085|    0.709837|    0.007905|  1.4641e+00|  1.4641e+00|  1.4641e+00|
|         607|  8.2558e-01|   -4.214560|    0.709851|    0.007900|  1.6105e+00|  1.6105e+00|  1.6105e+00|
|         608|  8.2506e-01|   -4.214998|    0.709867|    0.007894|  1.7716e+00|  1.7716e+00|  1.7716e+00|
|         609|  8.2462e-01|   -4.215375|    0.709883|    0.007888|  1.9487e+00|  1.9487e+00|  1.9487e+00|
|         610|  8.2459e-01|   -4.215713|    0.709901|    0.007881|  2.1436e+00|  2.1436e+00|  2.1436e+00|
|         611|  8.2413e-01|   -4.215981|    0.709921|    0.007874|  2.3579e+00|  2.3579e+00|  2.3579e+00|
|         612|  8.2420e-01|   -4.216146|    0.709942|    0.007866|  2.5937e+00|  2.5937e+00|  2.5937e+00|
|         613|  8.2375e-01|   -4.216257|    0.709966|    0.007857|  2.8531e+00|  2.8531e+00|  2.8531e+00|
|         614|  8.2380e-01|   -4.216318|    0.709992|    0.007848|  3.1384e+00|  3.1384e+00|  3.1384e+00|
|         615|  8.2341e-01|   -4.216319|    0.710021|    0.007838|  3.4523e+00|  3.4523e+00|  3.4523e+00|
|         616|  8.2354e-01|   -4.216234|    0.710053|    0.007827|  3.7975e+00|  3.7975e+00|  3.7975e+00|
|         617|  8.2314e-01|   -4.216036|    0.710089|    0.007815|  4.1772e+00|  4.1772e+00|  4.1772e+00|
|         618|  8.2275e-01|   -4.216005|    0.710130|    0.007802|  4.5950e+00|  4.5950e+00|  4.5950e+00|
|         619|  8.2285e-01|   -4.215954|    0.710174|    0.007788|  5.0545e+00|  5.0545e+00|  5.0545e+00|
|         620|  8.2253e-01|   -4.215696|    0.710224|    0.007773|  5.5599e+00|  5.5599e+00|  5.5599e+00|
|         621|  8.2220e-01|   -4.215454|    0.710276|    0.007757|  6.1159e+00|  6.1159e+00|  6.1159e+00|
|         622|  8.2244e-01|   -4.215251|    0.710333|    0.007740|  6.7275e+00|  6.7275e+00|  6.7275e+00|
[...]
|        3522|  8.4755e-01|   -6.738027|    0.706711|    0.013709|  6.7459e+00|  6.7459e+00|  6.7459e+00|
|        3523|  8.4750e-01|   -6.748606|    0.706711|    0.013709|  7.4205e+00|  7.4205e+00|  7.4205e+00|
|        3524|  8.4755e-01|   -6.754997|    0.706711|    0.013709|  8.1626e+00|  8.1626e+00|  8.1626e+00|
|        3525|  8.4751e-01|   -6.758459|    0.706710|    0.013709|  8.9788e+00|  8.9788e+00|  8.9788e+00|
|        3526|  8.4747e-01|   -6.760435|    0.706710|    0.013709|  9.8767e+00|  9.8767e+00|  9.8767e+00|
|        3527|  8.4753e-01|   -6.761566|    0.706710|    0.013709|  1.0864e+01|  1.0864e+01|  1.0864e+01|
|        3528|  8.4749e-01|   -6.762187|    0.706710|    0.013708|  1.1951e+01|  1.1951e+01|  1.1951e+01|
|        3529|  8.4752e-01|   -6.762536|    0.706710|    0.013708|  1.3146e+01|  1.3146e+01|  1.3146e+01|
|        3530|  8.4748e-01|   -6.762789|    0.706710|    0.013708|  1.4460e+01|  1.4460e+01|  1.4460e+01|
|        3531|  8.4753e-01|   -6.762965|    0.706710|    0.013708|  1.5907e+01|  1.5907e+01|  1.5907e+01|
|        3532|  8.4750e-01|   -6.762976|    0.706709|    0.013708|  1.7497e+01|  1.7497e+01|  1.7497e+01|
|        3533|  8.4754e-01|   -6.762753|    0.706709|    0.013707|  1.9247e+01|  1.9247e+01|  1.9247e+01|
|        3534|  8.4750e-01|   -6.762364|    0.706709|    0.013707|  2.1172e+01|  2.1172e+01|  2.1172e+01|
|        3535|  8.4747e-01|   -6.761955|    0.706709|    0.013706|  2.3289e+01|  2.3289e+01|  2.3289e+01|
|        3536|  8.4751e-01|   -6.760925|    0.706710|    0.013706|  2.5618e+01|  2.5618e+01|  2.5618e+01|
|        3537|  8.4748e-01|   -6.760320|    0.706710|    0.013705|  2.8179e+01|  2.8179e+01|  2.8179e+01|
|        3538|  8.4753e-01|   -6.759263|    0.706710|    0.013705|  3.0997e+01|  3.0997e+01|  3.0997e+01|
|        3539|  8.4749e-01|   -6.758040|    0.706710|    0.013704|  3.0997e+01|  3.0997e+01|  3.0997e+01|
|        3540|  8.4749e-01|   -6.756595|    0.706711|    0.013703|  3.0997e+01|  3.0997e+01|  3.0997e+01|
|        3541|  8.4749e-01|   -6.758549|    0.706712|    0.013702|  3.0997e+01|  3.0997e+01|  3.0997e+01|
|        3542|  8.4746e-01|   -6.763077|    0.706713|    0.013702|  3.0997e+01|  3.0997e+01|  3.0997e+01|
|        3543|  8.4750e-01|   -6.767978|    0.706713|    0.013701|  3.0997e+01|  3.0997e+01|  3.0997e+01|
|        3544|  8.4746e-01|   -6.773207|    0.706715|    0.013700|  3.0997e+01|  3.0997e+01|  3.0997e+01|
|        3545|  8.4745e-01|   -6.778447|    0.706716|    0.013699|  1.5499e+01|  1.5499e+01|  1.5499e+01|
|        3546|  8.4747e-01|   -6.784462|    0.706716|    0.013699|  7.7493e+00|  7.7493e+00|  7.7493e+00|
|        3547|  8.4743e-01|   -6.803863|    0.706717|    0.013699|  3.8747e+00|  3.8747e+00|  3.8747e+00|
|        3548|  8.4741e-01|   -6.820812|    0.706717|    0.013698|  4.2621e+00|  4.2621e+00|  4.2621e+00|
|        3549|  8.4735e-01|   -6.829126|    0.706717|    0.013698|  4.6884e+00|  4.6884e+00|  4.6884e+00|
|        3550|  8.4729e-01|   -6.834825|    0.706717|    0.013698|  5.1572e+00|  5.1572e+00|  5.1572e+00|
|        3551|  8.4731e-01|   -6.838794|    0.706717|    0.013698|  5.6729e+00|  5.6729e+00|  5.6729e+00|
|        3552|  8.4726e-01|   -6.841826|    0.706718|    0.013698|  6.2402e+00|  6.2402e+00|  6.2402e+00|
|        3553|  8.4721e-01|   -6.844270|    0.706718|    0.013698|  6.8642e+00|  6.8642e+00|  6.8642e+00|
|        3554|  8.4724e-01|   -6.846316|    0.706718|    0.013698|  7.5506e+00|  7.5506e+00|  7.5506e+00|
|        3555|  8.4720e-01|   -6.848134|    0.706719|    0.013697|  8.3057e+00|  8.3057e+00|  8.3057e+00|
|        3556|  8.4716e-01|   -6.849877|    0.706719|    0.013697|  9.1363e+00|  9.1363e+00|  9.1363e+00|
|        3557|  8.4719e-01|   -6.851629|    0.706719|    0.013697|  1.0050e+01|  1.0050e+01|  1.0050e+01|
|        3558|  8.4716e-01|   -6.853431|    0.706720|    0.013697|  1.1055e+01|  1.1055e+01|  1.1055e+01|
|        3559|  8.4720e-01|   -6.855243|    0.706720|    0.013696|  1.2160e+01|  1.2160e+01|  1.2160e+01|
|        3560|  8.4716e-01|   -6.857037|    0.706721|    0.013696|  1.3376e+01|  1.3376e+01|  1.3376e+01|
|        3561|  8.4713e-01|   -6.858775|    0.706722|    0.013695|  1.4714e+01|  1.4714e+01|  1.4714e+01|
|        3562|  8.4717e-01|   -6.860486|    0.706722|    0.013695|  1.6185e+01|  1.6185e+01|  1.6185e+01|
|        3563|  8.4714e-01|   -6.862146|    0.706723|    0.013695|  1.7804e+01|  1.7804e+01|  1.7804e+01|
|        3564|  8.4718e-01|   -6.863707|    0.706724|    0.013694|  1.9584e+01|  1.9584e+01|  1.9584e+01|
|        3565|  8.4715e-01|   -6.865230|    0.706726|    0.013693|  2.1543e+01|  2.1543e+01|  2.1543e+01|
|        3566|  8.4719e-01|   -6.866730|    0.706727|    0.013693|  2.3697e+01|  2.3697e+01|  2.3697e+01|
|        3567|  8.4715e-01|   -6.868194|    0.706728|    0.013692|  2.6067e+01|  2.6067e+01|  2.6067e+01|
|        3568|  8.4721e-01|   -6.869582|    0.706730|    0.013691|  2.8674e+01|  2.8674e+01|  2.8674e+01|
|        3569|  8.4717e-01|   -6.870852|    0.706732|    0.013691|  3.1541e+01|  3.1541e+01|  3.1541e+01|
|        3570|  8.4721e-01|   -6.871951|    0.706734|    0.013690|  1.5770e+01|  1.5770e+01|  1.5770e+01|
|        3571|  8.4717e-01|   -6.872643|    0.706735|    0.013689|  1.7347e+01|  1.7347e+01|  1.7347e+01|
|        3572|  8.4721e-01|   -6.887533|    0.706737|    0.013689|  1.9082e+01|  1.9082e+01|  1.9082e+01|
|        3573|  8.4718e-01|   -6.896872|    0.706738|    0.013688|  2.0990e+01|  2.0990e+01|  2.0990e+01|
|        3574|  8.4716e-01|   -6.899054|    0.706740|    0.013687|  2.3090e+01|  2.3090e+01|  2.3090e+01|
|        3575|  8.4720e-01|   -6.900581|    0.706741|    0.013687|  2.5398e+01|  2.5398e+01|  2.5398e+01|
|        3576|  8.4716e-01|   -6.901808|    0.706743|    0.013686|  2.7938e+01|  2.7938e+01|  2.7938e+01|
|        3577|  8.4720e-01|   -6.903046|    0.706746|    0.013685|  3.0732e+01|  3.0732e+01|  3.0732e+01|
|        3578|  8.4716e-01|   -6.903959|    0.706748|    0.013684|  3.0732e+01|  3.0732e+01|  3.0732e+01|
|        3579|  8.4713e-01|   -6.904415|    0.706751|    0.013684|  3.0732e+01|  3.0732e+01|  3.0732e+01|
|        3580|  8.4718e-01|   -6.906840|    0.706753|    0.013683|  3.0732e+01|  3.0732e+01|  3.0732e+01|
|        3581|  8.4714e-01|   -6.910087|    0.706756|    0.013682|  3.0732e+01|  3.0732e+01|  3.0732e+01|
|        3582|  8.4715e-01|   -6.913005|    0.706759|    0.013681|  3.0732e+01|  3.0732e+01|  3.0732e+01|
|        3583|  8.4720e-01|   -6.915594|    0.706761|    0.013680|  3.0732e+01|  3.0732e+01|  3.0732e+01|
|        3584|  8.4717e-01|   -6.917907|    0.706764|    0.013680|  3.0732e+01|  3.0732e+01|  3.0732e+01|
|        3585|  8.4723e-01|   -6.920036|    0.706767|    0.013679|  3.0732e+01|  3.0732e+01|  3.0732e+01|
|        3586|  8.4727e-01|   -6.921767|    0.706770|    0.013678|  3.0732e+01|  3.0732e+01|  3.0732e+01|
|        3587|  8.4723e-01|   -6.923113|    0.706773|    0.013678|  3.0732e+01|  3.0732e+01|  3.0732e+01|
|        3588|  8.4729e-01|   -6.924112|    0.706775|    0.013677|  3.0732e+01|  3.0732e+01|  3.0732e+01|
|        3589|  8.4725e-01|   -6.922369|    0.706778|    0.013676|  3.0732e+01|  3.0732e+01|  3.0732e+01|
|        3590|  8.4731e-01|   -6.917960|    0.706781|    0.013676|  3.0732e+01|  3.0732e+01|  3.0732e+01|
|        3591|  8.4727e-01|   -6.912841|    0.706784|    0.013675|  3.0732e+01|  3.0732e+01|  3.0732e+01|
|        3592|  8.4730e-01|   -6.905970|    0.706787|    0.013675|  3.3805e+01|  3.3805e+01|  3.3805e+01|
|        3593|  8.4726e-01|   -6.895242|    0.706790|    0.013674|  1.6903e+01|  1.6903e+01|  1.6903e+01|
|        3594|  8.4730e-01|   -6.886505|    0.706791|    0.013674|  1.8593e+01|  1.8593e+01|  1.8593e+01|
|        3595|  8.4726e-01|   -6.899707|    0.706793|    0.013674|  2.0452e+01|  2.0452e+01|  2.0452e+01|
|        3596|  8.4731e-01|   -6.920275|    0.706794|    0.013674|  2.2497e+01|  2.2497e+01|  2.2497e+01|
|        3597|  8.4727e-01|   -6.910472|    0.706796|    0.013673|  2.4747e+01|  2.4747e+01|  2.4747e+01|
|        3598|  8.4729e-01|   -6.901614|    0.706798|    0.013673|  2.7222e+01|  2.7222e+01|  2.7222e+01|
|        3599|  8.4726e-01|   -6.882178|    0.706801|    0.013673|  2.9944e+01|  2.9944e+01|  2.9944e+01|
|        3600|  8.4729e-01|   -6.865438|    0.706803|    0.013673|  3.2939e+01|  3.2939e+01|  3.2939e+01|
|        3601|  8.4726e-01|   -6.851084|    0.706806|    0.013672|  3.2939e+01|  3.2939e+01|  3.2939e+01|
|        3602|  8.4730e-01|   -6.837670|    0.706808|    0.013672|  3.2939e+01|  3.2939e+01|  3.2939e+01|
|        3603|  8.4727e-01|   -6.832432|    0.706811|    0.013672|  3.2939e+01|  3.2939e+01|  3.2939e+01|
|        3604|  8.4729e-01|   -6.837547|    0.706813|    0.013672|  3.2939e+01|  3.2939e+01|  3.2939e+01|
|        3605|  8.4725e-01|   -6.845381|    0.706816|    0.013672|  3.2939e+01|  3.2939e+01|  3.2939e+01|
|        3606|  8.4730e-01|   -6.846655|    0.706818|    0.013672|  3.2939e+01|  3.2939e+01|  3.2939e+01|
|        3607|  8.4726e-01|   -6.848765|    0.706820|    0.013672|  3.2939e+01|  3.2939e+01|  3.2939e+01|
|        3608|  8.4730e-01|   -6.844119|    0.706822|    0.013672|  3.2939e+01|  3.2939e+01|  3.2939e+01|
|        3609|  8.4727e-01|   -6.843278|    0.706825|    0.013672|  3.2939e+01|  3.2939e+01|  3.2939e+01|
|        3610|  8.4729e-01|   -6.843580|    0.706826|    0.013672|  3.2939e+01|  3.2939e+01|  3.2939e+01|
|        3611|  8.4726e-01|   -6.843692|    0.706828|    0.013672|  3.2939e+01|  3.2939e+01|  3.2939e+01|
|        3612|  8.4731e-01|   -6.840701|    0.706830|    0.013673|  3.2939e+01|  3.2939e+01|  3.2939e+01|
|        3613|  8.4728e-01|   -6.852903|    0.706832|    0.013673|  1.6469e+01|  1.6469e+01|  1.6469e+01|
|        3614|  8.4733e-01|   -6.843878|    0.706833|    0.013673|  1.8116e+01|  1.8116e+01|  1.8116e+01|
|        3615|  8.4730e-01|   -6.874316|    0.706833|    0.013673|  1.9928e+01|  1.9928e+01|  1.9928e+01|
|        3616|  8.4733e-01|   -6.868171|    0.706834|    0.013673|  2.1921e+01|  2.1921e+01|  2.1921e+01|
|        3617|  8.4734e-01|   -6.875272|    0.706835|    0.013674|  2.4113e+01|  2.4113e+01|  2.4113e+01|
|        3618|  8.4735e-01|   -6.874468|    0.706836|    0.013674|  2.6524e+01|  2.6524e+01|  2.6524e+01|
|        3619|  8.4736e-01|   -6.869112|    0.706837|    0.013674|  2.9176e+01|  2.9176e+01|  2.9176e+01|
|        3620|  8.4736e-01|   -6.878585|    0.706838|    0.013675|  3.2094e+01|  3.2094e+01|  3.2094e+01|
|        3621|  8.4734e-01|   -6.878858|    0.706839|    0.013675|  1.6047e+01|  1.6047e+01|  1.6047e+01|
|        3622|  8.4738e-01|   -6.871619|    0.706839|    0.013675|  1.7652e+01|  1.7652e+01|  1.7652e+01|
|        3623|  8.4741e-01|   -6.892901|    0.706840|    0.013676|  1.9417e+01|  1.9417e+01|  1.9417e+01|
|        3624|  8.4740e-01|   -6.887323|    0.706840|    0.013676|  2.1359e+01|  2.1359e+01|  2.1359e+01|
|        3625|  8.4736e-01|   -6.885221|    0.706841|    0.013676|  2.3494e+01|  2.3494e+01|  2.3494e+01|
|        3626|  8.4740e-01|   -6.888955|    0.706841|    0.013677|  2.5844e+01|  2.5844e+01|  2.5844e+01|
|        3627|  8.4737e-01|   -6.877146|    0.706842|    0.013677|  2.8428e+01|  2.8428e+01|  2.8428e+01|
|        3628|  8.4741e-01|   -6.880141|    0.706842|    0.013678|  3.1271e+01|  3.1271e+01|  3.1271e+01|
|        3629|  8.4738e-01|   -6.881017|    0.706842|    0.013678|  3.1271e+01|  3.1271e+01|  3.1271e+01|
|        3630|  8.4743e-01|   -6.864173|    0.706843|    0.013679|  3.1271e+01|  3.1271e+01|  3.1271e+01|
|        3631|  8.4739e-01|   -6.858271|    0.706843|    0.013680|  3.1271e+01|  3.1271e+01|  3.1271e+01|
|        3632|  8.4736e-01|   -6.852213|    0.706843|    0.013680|  3.4398e+01|  3.4398e+01|  3.4398e+01|
|        3633|  8.4740e-01|   -6.836404|    0.706843|    0.013681|  1.7199e+01|  1.7199e+01|  1.7199e+01|
|        3634|  8.4737e-01|   -6.823069|    0.706843|    0.013681|  1.8919e+01|  1.8919e+01|  1.8919e+01|
|        3635|  8.4742e-01|   -6.847675|    0.706842|    0.013682|  2.0811e+01|  2.0811e+01|  2.0811e+01|
|        3636|  8.4738e-01|   -6.842506|    0.706842|    0.013682|  2.2892e+01|  2.2892e+01|  2.2892e+01|
|        3637|  8.4735e-01|   -6.838866|    0.706842|    0.013683|  2.5181e+01|  2.5181e+01|  2.5181e+01|
|        3638|  8.4740e-01|   -6.819761|    0.706842|    0.013683|  2.7699e+01|  2.7699e+01|  2.7699e+01|
|        3639|  8.4736e-01|   -6.804046|    0.706841|    0.013684|  3.0469e+01|  3.0469e+01|  3.0469e+01|
|        3640|  8.4733e-01|   -6.788513|    0.706841|    0.013685|  3.3516e+01|  3.3516e+01|  3.3516e+01|
|        3641|  8.4741e-01|   -6.803504|    0.706840|    0.013686|  3.3516e+01|  3.3516e+01|  3.3516e+01|
|        3642|  8.4737e-01|   -6.802268|    0.706839|    0.013686|  3.3516e+01|  3.3516e+01|  3.3516e+01|
|        3643|  8.4743e-01|   -6.808169|    0.706838|    0.013687|  3.3516e+01|  3.3516e+01|  3.3516e+01|
|        3644|  8.4739e-01|   -6.810849|    0.706837|    0.013688|  3.3516e+01|  3.3516e+01|  3.3516e+01|
|        3645|  8.4745e-01|   -6.818773|    0.706836|    0.013689|  3.3516e+01|  3.3516e+01|  3.3516e+01|
|        3646|  8.4742e-01|   -6.831598|    0.706835|    0.013690|  3.3516e+01|  3.3516e+01|  3.3516e+01|
|        3647|  8.4745e-01|   -6.826313|    0.706834|    0.013690|  1.6758e+01|  1.6758e+01|  1.6758e+01|
|        3648|  8.4745e-01|   -6.817017|    0.706833|    0.013691|  8.3790e+00|  8.3790e+00|  8.3790e+00|
|        3649|  8.4749e-01|   -6.837802|    0.706833|    0.013691|  4.1895e+00|  4.1895e+00|  4.1895e+00|
|        3650|  8.4743e-01|   -6.878986|    0.706833|    0.013691|  2.0948e+00|  2.0948e+00|  2.0948e+00|
|        3651|  8.4742e-01|   -6.890771|    0.706833|    0.013691|  1.0474e+00|  1.0474e+00|  1.0474e+00|
|        3652|  8.4734e-01|   -6.897099|    0.706833|    0.013691|  1.0000e+00|  1.0000e+00|  1.0000e+00|
|        3653|  8.4725e-01|   -6.900928|    0.706832|    0.013691|  1.0000e+00|  1.0000e+00|  1.0000e+00|
|        3654|  8.4725e-01|   -6.903388|    0.706832|    0.013691|  1.1000e+00|  1.1000e+00|  1.1000e+00|
|        3655|  8.4716e-01|   -6.905200|    0.706832|    0.013691|  1.2100e+00|  1.2100e+00|  1.2100e+00|
|        3656|  8.4706e-01|   -6.907099|    0.706832|    0.013691|  1.3310e+00|  1.3310e+00|  1.3310e+00|
|        3657|  8.4705e-01|   -6.908888|    0.706832|    0.013691|  1.4641e+00|  1.4641e+00|  1.4641e+00|
|        3658|  8.4696e-01|   -6.910377|    0.706832|    0.013691|  1.6105e+00|  1.6105e+00|  1.6105e+00|
|        3659|  8.4694e-01|   -6.911621|    0.706832|    0.013691|  1.7716e+00|  1.7716e+00|  1.7716e+00|
|        3660|  8.4688e-01|   -6.912666|    0.706832|    0.013691|  1.9487e+00|  1.9487e+00|  1.9487e+00|
|        3661|  8.4680e-01|   -6.913650|    0.706832|    0.013691|  2.1436e+00|  2.1436e+00|  2.1436e+00|
|        3662|  8.4679e-01|   -6.914663|    0.706832|    0.013691|  2.3579e+00|  2.3579e+00|  2.3579e+00|
|        3663|  8.4671e-01|   -6.915674|    0.706832|    0.013692|  2.5937e+00|  2.5937e+00|  2.5937e+00|
|        3664|  8.4671e-01|   -6.916665|    0.706832|    0.013692|  2.8531e+00|  2.8531e+00|  2.8531e+00|
|        3665|  8.4664e-01|   -6.917611|    0.706832|    0.013692|  3.1384e+00|  3.1384e+00|  3.1384e+00|
|        3666|  8.4657e-01|   -6.918482|    0.706831|    0.013692|  3.4523e+00|  3.4523e+00|  3.4523e+00|
|        3667|  8.4658e-01|   -6.919383|    0.706831|    0.013692|  3.7975e+00|  3.7975e+00|  3.7975e+00|
|        3668|  8.4651e-01|   -6.920123|    0.706831|    0.013692|  4.1772e+00|  4.1772e+00|  4.1772e+00|
|        3669|  8.4653e-01|   -6.920582|    0.706831|    0.013692|  4.5950e+00|  4.5950e+00|  4.5950e+00|
|        3670|  8.4647e-01|   -6.920805|    0.706831|    0.013692|  5.0545e+00|  5.0545e+00|  5.0545e+00|
|        3671|  8.4648e-01|   -6.921754|    0.706831|    0.013692|  5.5599e+00|  5.5599e+00|  5.5599e+00|
|        3672|  8.4641e-01|   -6.920034|    0.706830|    0.013692|  2.7800e+00|  2.7800e+00|  2.7800e+00|
|        3673|  8.4635e-01|   -6.912501|    0.706830|    0.013692|  1.3900e+00|  1.3900e+00|  1.3900e+00|
|        3674|  8.4634e-01|   -6.912192|    0.706830|    0.013692|  1.0000e+00|  1.0000e+00|  1.0000e+00|
|        3675|  8.4624e-01|   -6.912537|    0.706830|    0.013693|  1.0000e+00|  1.0000e+00|  1.0000e+00|
|        3676|  8.4619e-01|   -6.912682|    0.706830|    0.013693|  1.0000e+00|  1.0000e+00|  1.0000e+00|
|        3677|  8.4614e-01|   -6.912530|    0.706830|    0.013693|  1.0000e+00|  1.0000e+00|  1.0000e+00|
|        3678|  8.4605e-01|   -6.912077|    0.706830|    0.013693|  1.0000e+00|  1.0000e+00|  1.0000e+00|
|        3679|  8.4602e-01|   -6.911364|    0.706830|    0.013693|  1.0000e+00|  1.0000e+00|  1.0000e+00|
|        3680|  8.4593e-01|   -6.910480|    0.706830|    0.013693|  1.0000e+00|  1.0000e+00|  1.0000e+00|
|        3681|  8.4584e-01|   -6.909692|    0.706830|    0.013693|  1.0000e+00|  1.0000e+00|  1.0000e+00|
|        3682|  8.4583e-01|   -6.908994|    0.706830|    0.013693|  1.0000e+00|  1.0000e+00|  1.0000e+00|
|        3683|  8.4574e-01|   -6.908394|    0.706830|    0.013693|  1.0000e+00|  1.0000e+00|  1.0000e+00|
|        3684|  8.4566e-01|   -6.907888|    0.706830|    0.013693|  1.0000e+00|  1.0000e+00|  1.0000e+00|
|        3685|  8.4564e-01|   -6.907489|    0.706830|    0.013693|  1.0000e+00|  1.0000e+00|  1.0000e+00|
|        3686|  8.4554e-01|   -6.907205|    0.706830|    0.013693|  1.0000e+00|  1.0000e+00|  1.0000e+00|
|        3687|  8.4551e-01|   -6.907045|    0.706830|    0.013693|  1.0000e+00|  1.0000e+00|  1.0000e+00|
|        3688|  8.4542e-01|   -6.906981|    0.706830|    0.013693|  1.0000e+00|  1.0000e+00|  1.0000e+00|
|        3689|  8.4533e-01|   -6.907001|    0.706829|    0.013693|  1.0000e+00|  1.0000e+00|  1.0000e+00|
|        3690|  8.4531e-01|   -6.907083|    0.706829|    0.013693|  1.0000e+00|  1.0000e+00|  1.0000e+00|
|        3691|  8.4522e-01|   -6.907238|    0.706829|    0.013693|  1.0000e+00|  1.0000e+00|  1.0000e+00|
|        3692|  8.4513e-01|   -6.907456|    0.706829|    0.013693|  1.0000e+00|  1.0000e+00|  1.0000e+00|

----------------------------- Solver Exit -------------------------------
All convergence criteria satisfied.
+-----------------------------------------------------------------------+
|      Convergence Field     |     Value    |   Criterion  |  Converged |
+-----------------------------------------------------------------------+
|                  Cauchy[CL]|   9.87047e-07|       < 1e-06|         Yes|
+-----------------------------------------------------------------------+
-------------------------------------------------------------------------
+-----------------------------------------------------------------------+
|        File Writing Summary       |              Filename             |
+-----------------------------------------------------------------------+
|SU2 binary restart                 |restart_flow.dat                   |

Writing the forces breakdown file (forces_breakdown.dat).
|Paraview                           |flow.vtu                           |

Writing the forces breakdown file (forces_breakdown.dat).
|Paraview surface                   |surface_flow.vtu                   |

Writing the forces breakdown file (forces_breakdown.dat).
+-----------------------------------------------------------------------+

--------------------------- Finalizing Solver ---------------------------
Deleted CNumerics container.
Deleted CIntegration container.
Deleted CSolver container.
Deleted CIteration container.
Deleted CInterface container.
Deleted CGeometry container.
Deleted CFreeFormDefBox class.
Deleted CSurfaceMovement class.
Deleted CVolumetricMovement class.
Deleted CConfig container.
Deleted nInst container.
Deleted COutput class.
-------------------------------------------------------------------------

------------------------- Exit Success (SU2_CFD) ------------------------

