
-------------------------------------------------------------------------
|    ___ _   _ ___                                                      |
|   / __| | | |_  )   Release 8.0.0 "Harrier"                           |
|   \__ \ |_| |/ /                                                      |
|   |___/\___//___|   Suite (Computational Fluid Dynamics Code)         |
|                                                                       |
-------------------------------------------------------------------------
| SU2 Project Website: https://su2code.github.io                        |
|                                                                       |
| The SU2 Project is maintained by the SU2 Foundation                   |
| (http://su2foundation.org)                                            |
-------------------------------------------------------------------------
| Copyright 2012-2023, SU2 Contributors                                 |
|                                                                       |
| SU2 is free software; you can redistribute it and/or                  |
| modify it under the terms of the GNU Lesser General Public            |
| License as published by the Free Software Foundation; either          |
| version 2.1 of the License, or (at your option) any later version.    |
|                                                                       |
| SU2 is distributed in the hope that it will be useful,                |
| but WITHOUT ANY WARRANTY; without even the implied warranty of        |
| MERCHANTABILITY or FITNESS FOR A PARTICULAR PURPOSE. See the GNU      |
| Lesser General Public License for more details.                       |
|                                                                       |
| You should have received a copy of the GNU Lesser General Public      |
| License along with SU2. If not, see <http://www.gnu.org/licenses/>.   |
-------------------------------------------------------------------------

Parsing config file for zone 0

----------------- Physical Case Definition ( Zone 0 ) -------------------
Compressible RANS equations.
Turbulence model: Spalart-Allmaras-noft2
Hybrid RANS/LES: No Hybrid RANS/LES
Mach number: 0.734.
Angle of attack (AoA): 2.31 deg, and angle of sideslip (AoS): 0 deg.
Reynolds number: 6.5e+06. Reference length 1.
No restart solution, use the values at infinity (freestream).
Dimensional simulation.
The reference area is 1 m^2.
The semi-span will be computed using the max y(3D) value.
The reference length is 1 m.
Reference origin for moment evaluation is (0.25, 0, 0).
Surface(s) where the force coefficients are evaluated: AIRFOIL.

Surface(s) plotted in the output file: AIRFOIL.
Input mesh file name: Mesh.su2

--------------- Space Numerical Integration ( Zone 0 ) ------------------
Roe (with entropy fix = 0.001) solver for the flow inviscid terms.
Standard Roe without low-dissipation function.
Second order integration in space, with slope limiter.
Venkatakrishnan slope-limiting method, with constant: 0.03.
The reference element size is: 1. 
Scalar upwind solver for the turbulence model.
First order integration in space.
Average of gradients with correction (viscous flow terms).
Average of gradients with correction (viscous turbulence terms).
Gradient for upwind reconstruction: inverse-distance weighted Least-Squares.
Gradient for viscous and source terms: inverse-distance weighted Least-Squares.

--------------- Time Numerical Integration  ( Zone 0 ) ------------------
Local time stepping (steady state simulation).
Euler implicit method for the flow equations.
FGMRES is used for solving the linear system.
Using a ILU(0) preconditioning.
Convergence criteria of the linear solver: 0.01.
Max number of linear iterations: 5.
CFL adaptation. Factor down: 0.5, factor up: 1.1,
                lower limit: 50, upper limit: 10000,
                acceptable linear residual: 0.01.
Courant-Friedrichs-Lewy number:       20
Euler implicit time integration for the turbulence model.

------------------ Convergence Criteria  ( Zone 0 ) ---------------------
Maximum number of solver subiterations: 5000.
Begin convergence monitoring at iteration 10.
Residual minimum value: 1e-14.
Cauchy series min. value: 1e-06.
Number of Cauchy elements: 100.
Begin windowed time average at iteration 0.

-------------------- Output Information ( Zone 0 ) ----------------------
File writing frequency: 
+------------------------------------+
|                     File| Frequency|
+------------------------------------+
|                  RESTART|      1000|
|                 PARAVIEW|      1000|
|         SURFACE_PARAVIEW|      1000|
+------------------------------------+
Writing the convergence history file every 1 inner iterations.
Writing the screen convergence history every 1 inner iterations.
The tabular file format is CSV (.csv).
Convergence history file name: historyThird.
Forces breakdown file name: forces_breakdown.dat.
Surface file name: surface_flow.
Volume file name: flow.
Restart file name: restart_flow.dat.

------------- Config File Boundary Information ( Zone 0 ) ---------------
+-----------------------------------------------------------------------+
|                        Marker Type|                        Marker Name|
+-----------------------------------------------------------------------+
|                          Far-field|                           FARFIELD|
+-----------------------------------------------------------------------+
|                     Heat flux wall|                            AIRFOIL|
+-----------------------------------------------------------------------+

-------------------- Output Preprocessing ( Zone 0 ) --------------------

WARNING: SURFACE_PRESSURE_DROP can only be computed for at least 2 surfaces (outlet, inlet, ...)

Screen output fields: INNER_ITER, WALL_TIME, RMS_DENSITY, LIFT, DRAG, LINSOL_ITER, LINSOL_RESIDUAL, MIN_CFL, MAX_CFL, AVG_CFL
  Info: Ignoring the following history output groups:
  RESIDUALS, CFL
History output group(s): INNER_ITER, LIFT, DRAG
Convergence field(s): LIFT
Warning: No (valid) fields chosen for time convergence monitoring. Time convergence monitoring inactive.
  Info: Ignoring the following volume output fields/groups:
  RESIDUALS
Volume output fields: SOLUTION, PRIMITIVE, GRADIENTS, HESSIANS, EIGENVALUES, WALL_DISTANCE, COORDINATES

------------------- Geometry Preprocessing ( Zone 0 ) -------------------
Two dimensional problem.
283227 grid points before partitioning.
422017 volume elements before partitioning.
2 surface markers.
3720 boundary elements in index 0 (Marker = AIRFOIL).
40 boundary elements in index 1 (Marker = FARFIELD).
Executing the partitioning functions.
Building the graph adjacency structure.
Calling ParMETIS... graph partitioning complete (1784 edge cuts).
Distributing ParMETIS coloring.
Rebalancing vertices.
Rebalancing volume element connectivity.
Rebalancing markers and surface elements.
285316 vertices including ghost points. 
423801 interior elements including halo cells. 
282829 triangles.
140972 quadrilaterals.
Establishing MPI communication patterns.
Setting point connectivity.
Renumbering points (Reverse Cuthill McKee Ordering).
Recomputing point connectivity.
Setting element connectivity.
Checking the numerical grid orientation.
All volume elements are correctly orientend.
All surface elements are correctly orientend.
Identifying edges and vertices.
Setting the control volume structure.
Area of the computational grid: 31287.6.
Searching for the closest normal neighbors to the surfaces.
Storing a mapping from global to local point index.
Compute the surface curvature.
Max K: 13978.6. Mean K: 13.454. Standard deviation K: 315.929.
Checking for periodicity.
Computing mesh quality statistics for the dual control volumes.
+--------------------------------------------------------------+
|           Mesh Quality Metric|        Minimum|        Maximum|
+--------------------------------------------------------------+
|    Orthogonality Angle (deg.)|        51.9653|             90|
|     CV Face Area Aspect Ratio|        1.00015|        1057.14|
|           CV Sub-Volume Ratio|              1|        11.7353|
+--------------------------------------------------------------+
Finding max control volume width.
Communicating number of neighbors.
Wetted area = 2.02063 m.
Area projection in the x-plane = 0.123301 m, y-plane = 0.993661 m.
Max. coordinate in the x-direction = 0.993668 m, y-direction = 0.0643505 m.
Min. coordinate in the x-direction = 0 m, y-direction = -0.0577868 m.
Computing wall distances.

-------------------- Solver Preprocessing ( Zone 0 ) --------------------
Viscous flow: Computing pressure using the ideal gas law
based on the free-stream temperature and a density computed
from the Reynolds number.
Force coefficients computed using free-stream values.

-- Models:
+------------------------------------------------------------------------------+
|          Viscosity Model|        Conductivity Model|              Fluid Model|
+------------------------------------------------------------------------------+
|               SUTHERLAND|          CONSTANT_PRANDTL|             STANDARD_AIR|
+------------------------------------------------------------------------------+
-- Fluid properties:
+------------------------------------------------------------------------------+
|                  Name|    Dim. value|    Ref. value|      Unit|Non-dim. value|
+------------------------------------------------------------------------------+
|        Ref. Viscosity|     1.716e-05|             1|   N.s/m^2|     1.716e-05|
|      Sutherland Temp.|        273.15|             1|         K|        273.15|
|     Sutherland Const.|         110.4|             1|         K|         110.4|
+------------------------------------------------------------------------------+
|        Prandtl (Lam.)|             -|             -|         -|          0.71|
|       Prandtl (Turb.)|             -|             -|         -|           0.9|
+------------------------------------------------------------------------------+
|          Gas Constant|       287.058|             1|  N.m/kg.K|       287.058|
|      Spec. Heat Ratio|             -|             -|         -|           1.4|
+------------------------------------------------------------------------------+
-- Initial and free-stream conditions:
+------------------------------------------------------------------------------+
|                  Name|    Dim. value|    Ref. value|      Unit|Non-dim. value|
+------------------------------------------------------------------------------+
|       Static Pressure|         38515|             1|        Pa|         38515|
|               Density|      0.465631|             1|    kg/m^3|      0.465631|
|           Temperature|        288.15|             1|         K|        288.15|
|          Total Energy|        237984|             1|   m^2/s^2|        237984|
|            Velocity-X|       249.575|             1|       m/s|       249.575|
|            Velocity-Y|       10.0676|             1|       m/s|       10.0676|
|    Velocity Magnitude|       249.778|             1|       m/s|       249.778|
+------------------------------------------------------------------------------+
|             Viscosity|    1.7893e-05|             1|   N.s/m^2|    1.7893e-05|
|          Conductivity|             -|             1|   W/m^2.K|             -|
|     Turb. Kin. Energy|       233.959|             1|   m^2/s^2|       233.959|
|     Spec. Dissipation|        608834|             1|       1/s|        608834|
+------------------------------------------------------------------------------+
|           Mach Number|             -|             -|         -|         0.734|
|       Reynolds Number|             -|             -|         -|       6.5e+06|
+------------------------------------------------------------------------------+
Initialize Jacobian structure (Navier-Stokes). MG level: 0.
Initialize Jacobian structure (SA model).

------------------- Numerics Preprocessing ( Zone 0 ) -------------------

----------------- Integration Preprocessing ( Zone 0 ) ------------------

------------------- Iteration Preprocessing ( Zone 0 ) ------------------
Euler/Navier-Stokes/RANS fluid iteration.

------------------------------ Begin Solver -----------------------------

Simulation Run using the Single-zone Driver
WARNING: SU2 was not compiled for an AVX-capable architecture. Performance could be better,
         see https://su2code.github.io/docs_v7/Build-SU2-Linux-MacOS/#compiler-optimizations
+---------------------------------------------------------------------------------------------------------------------------------+
|  Inner_Iter|   Time(sec)|    rms[Rho]|          CL|          CD|Linear_Solve|   LinSolRes|     Min CFL|     Max CFL|     Avg CFL|
+---------------------------------------------------------------------------------------------------------------------------------+
|           0|  3.9143e-01|   -2.956353|    0.209972|    0.480984|           2|   -2.082087|  5.0000e+01|  5.0000e+01|  5.0000e+01|
|           1|  5.1173e-01|   -3.116263|    0.251761|    0.364315|           5|   -1.726207|  5.0000e+01|  5.0000e+01|  5.0000e+01|
|           2|  5.4158e-01|   -3.421699|    0.229290|    0.308526|           5|   -1.211630|  5.0000e+01|  5.0000e+01|  5.0000e+01|
|           3|  5.3329e-01|   -3.610370|    0.205735|    0.277650|           5|   -0.970117|  5.0000e+01|  5.0000e+01|  5.0000e+01|
|           4|  5.8043e-01|   -3.668872|    0.194167|    0.254770|           5|   -0.891802|  5.0000e+01|  5.0000e+01|  5.0000e+01|
|           5|  5.6860e-01|   -3.645040|    0.189484|    0.239411|           5|   -0.878705|  5.0000e+01|  5.0000e+01|  5.0000e+01|
|           6|  5.5993e-01|   -3.580542|    0.187421|    0.228740|           5|   -0.922241|  5.0000e+01|  5.0000e+01|  5.0000e+01|
|           7|  5.8707e-01|   -3.515103|    0.186059|    0.219448|           5|   -0.969345|  5.0000e+01|  5.0000e+01|  5.0000e+01|
|           8|  5.7937e-01|   -3.458696|    0.185234|    0.210493|           5|   -1.007487|  5.0000e+01|  5.0000e+01|  5.0000e+01|
|           9|  6.0015e-01|   -3.411799|    0.184925|    0.201631|           5|   -1.033044|  5.0000e+01|  5.0000e+01|  5.0000e+01|
|          10|  7.2858e-01|   -3.373079|    0.185120|    0.193052|           5|   -1.816013|  5.0000e+01|  5.0000e+01|  5.0000e+01|
|          11|  8.3024e-01|   -3.345312|    0.185357|    0.184636|           5|   -1.422470|  5.0000e+01|  5.0000e+01|  5.0000e+01|
|          12|  9.1423e-01|   -3.319922|    0.185369|    0.176576|           5|   -1.760481|  5.0000e+01|  5.0000e+01|  5.0000e+01|
|          13|  9.8938e-01|   -3.296362|    0.185353|    0.168983|           5|   -1.576688|  5.0000e+01|  5.0000e+01|  5.0000e+01|
|          14|  1.0524e+00|   -3.271162|    0.183901|    0.161674|           5|   -1.677759|  5.0000e+01|  5.0000e+01|  5.0000e+01|
|          15|  1.1109e+00|   -3.249188|    0.181770|    0.154799|           5|   -1.890177|  5.0000e+01|  5.0000e+01|  5.0000e+01|
|          16|  1.1617e+00|   -3.227533|    0.179615|    0.148179|           5|   -1.651922|  5.0000e+01|  5.0000e+01|  5.0000e+01|
|          17|  1.2013e+00|   -3.203416|    0.176078|    0.141803|           5|   -1.643565|  5.0000e+01|  5.0000e+01|  5.0000e+01|
|          18|  1.2433e+00|   -3.179551|    0.172959|    0.135671|           5|   -1.620947|  5.0000e+01|  5.0000e+01|  5.0000e+01|
|          19|  1.2808e+00|   -3.152951|    0.170733|    0.129454|           5|   -1.849780|  5.0000e+01|  5.0000e+01|  5.0000e+01|
|          20|  1.3121e+00|   -3.122418|    0.170065|    0.123343|           5|   -1.085719|  5.0000e+01|  5.0000e+01|  5.0000e+01|
|          21|  1.3401e+00|   -3.089517|    0.171110|    0.117111|           5|   -1.852382|  5.0000e+01|  5.0000e+01|  5.0000e+01|
|          22|  1.3626e+00|   -3.060001|    0.174385|    0.110911|           5|   -1.690845|  5.0000e+01|  5.0000e+01|  5.0000e+01|
|          23|  1.3880e+00|   -3.030661|    0.179976|    0.104882|           5|   -1.646910|  5.0000e+01|  5.0000e+01|  5.0000e+01|
|          24|  1.4086e+00|   -3.001926|    0.187730|    0.099174|           5|   -1.616583|  5.0000e+01|  5.0000e+01|  5.0000e+01|
|          25|  1.4208e+00|   -2.974508|    0.197542|    0.093988|           5|   -1.829404|  5.0000e+01|  5.0000e+01|  5.0000e+01|
|          26|  1.4387e+00|   -2.948870|    0.208874|    0.089486|           5|   -1.625047|  5.0000e+01|  5.0000e+01|  5.0000e+01|
|          27|  1.4554e+00|   -2.924447|    0.221513|    0.085779|           5|   -1.823068|  5.0000e+01|  5.0000e+01|  5.0000e+01|
|          28|  1.4692e+00|   -2.900870|    0.235031|    0.082939|           5|   -1.540285|  5.0000e+01|  5.0000e+01|  5.0000e+01|
|          29|  1.4833e+00|   -2.878660|    0.249156|    0.080986|           5|   -1.993568|  5.0000e+01|  5.0000e+01|  5.0000e+01|
|          30|  1.4976e+00|   -2.860212|    0.263647|    0.079842|           5|   -1.719744|  5.0000e+01|  5.0000e+01|  5.0000e+01|
|          31|  1.5159e+00|   -2.843563|    0.278344|    0.079412|           5|   -1.668773|  5.0000e+01|  5.0000e+01|  5.0000e+01|
|          32|  1.5300e+00|   -2.829860|    0.292984|    0.079504|           5|   -1.953806|  5.0000e+01|  5.0000e+01|  5.0000e+01|
|          33|  1.5465e+00|   -2.817882|    0.307382|    0.079929|           5|   -1.450712|  5.0000e+01|  5.0000e+01|  5.0000e+01|
|          34|  1.5596e+00|   -2.808406|    0.321828|    0.080484|           5|   -1.863167|  5.0000e+01|  5.0000e+01|  5.0000e+01|
|          35|  1.5675e+00|   -2.799988|    0.335823|    0.080979|           5|   -1.410372|  5.0000e+01|  5.0000e+01|  5.0000e+01|
|          36|  1.5875e+00|   -2.794317|    0.349493|    0.081258|           5|   -2.058781|  5.0000e+01|  5.0000e+01|  5.0000e+01|
|          37|  1.5970e+00|   -2.788053|    0.362621|    0.081188|           5|   -1.949214|  5.0000e+01|  5.0000e+01|  5.0000e+01|
|          38|  1.6078e+00|   -2.784242|    0.374980|    0.080693|           5|   -2.105689|  5.0000e+01|  5.0000e+01|  5.0000e+01|
|          39|  1.6170e+00|   -2.778395|    0.386584|    0.079745|           5|   -2.063570|  5.0000e+01|  5.0000e+01|  5.0000e+01|
|          40|  1.6264e+00|   -2.772860|    0.397302|    0.078356|           5|   -2.097443|  5.0000e+01|  5.0000e+01|  5.0000e+01|
|          41|  1.6347e+00|   -2.766719|    0.407190|    0.076577|           5|   -2.142973|  5.0000e+01|  5.0000e+01|  5.0000e+01|
|          42|  1.6408e+00|   -2.760581|    0.416128|    0.074468|           5|   -1.991086|  5.0000e+01|  5.0000e+01|  5.0000e+01|
|          43|  1.6428e+00|   -2.754209|    0.424169|    0.072125|           4|   -2.144311|  5.0000e+01|  5.0000e+01|  5.0000e+01|
|          44|  1.6439e+00|   -2.747413|    0.431309|    0.069618|           4|   -2.092572|  5.0000e+01|  5.0000e+01|  5.0000e+01|
|          45|  1.6519e+00|   -2.740297|    0.437936|    0.067067|           5|   -2.262996|  5.0000e+01|  5.0000e+01|  5.0000e+01|
|          46|  1.6566e+00|   -2.732919|    0.443988|    0.064525|           4|   -2.191187|  5.0000e+01|  5.0000e+01|  5.0000e+01|
|          47|  1.6550e+00|   -2.726808|    0.449743|    0.062059|           4|   -2.019590|  5.0000e+01|  5.0000e+01|  5.0000e+01|
|          48|  1.6565e+00|   -2.721824|    0.455427|    0.059735|           4|   -2.070578|  5.0000e+01|  5.0000e+01|  5.0000e+01|
|          49|  1.6644e+00|   -2.719436|    0.461248|    0.057588|           4|   -2.070622|  5.0000e+01|  5.0000e+01|  5.0000e+01|
|          50|  1.6592e+00|   -2.720237|    0.467497|    0.055641|           4|   -2.040679|  5.0000e+01|  5.0000e+01|  5.0000e+01|
|          51|  1.6650e+00|   -2.725188|    0.474140|    0.053955|           5|   -1.110444|  5.0000e+01|  5.0000e+01|  5.0000e+01|
|          52|  1.6753e+00|   -2.672568|    0.481748|    0.052408|           5|   -1.860600|  5.0000e+01|  5.0000e+01|  5.0000e+01|
|          53|  1.6824e+00|   -2.749704|    0.490128|    0.051037|           5|   -1.697292|  5.0000e+01|  5.0000e+01|  5.0000e+01|
|          54|  1.6893e+00|   -2.768975|    0.499399|    0.049815|           5|   -1.759828|  5.0000e+01|  5.0000e+01|  5.0000e+01|
|          55|  1.6958e+00|   -2.796201|    0.509512|    0.048712|           5|   -1.660826|  5.0000e+01|  5.0000e+01|  5.0000e+01|
|          56|  1.6997e+00|   -2.823927|    0.520336|    0.047684|           5|   -1.795853|  5.0000e+01|  5.0000e+01|  5.0000e+01|
|          57|  1.7074e+00|   -2.862928|    0.531697|    0.046699|           5|   -1.569237|  5.0000e+01|  5.0000e+01|  5.0000e+01|
|          58|  1.7102e+00|   -2.886860|    0.543456|    0.045707|           5|   -1.491265|  5.0000e+01|  5.0000e+01|  5.0000e+01|
|          59|  1.7114e+00|   -2.933458|    0.555334|    0.044690|           5|   -1.565971|  5.0000e+01|  5.0000e+01|  5.0000e+01|
|          60|  1.7164e+00|   -2.955138|    0.567102|    0.043627|           5|   -1.417866|  5.0000e+01|  5.0000e+01|  5.0000e+01|
|          61|  1.7210e+00|   -2.977789|    0.578761|    0.042494|           5|   -1.618338|  5.0000e+01|  5.0000e+01|  5.0000e+01|
|          62|  1.7246e+00|   -3.007978|    0.589955|    0.041299|           5|   -1.499261|  5.0000e+01|  5.0000e+01|  5.0000e+01|
|          63|  1.7279e+00|   -3.034791|    0.600514|    0.040049|           5|   -1.197415|  5.0000e+01|  5.0000e+01|  5.0000e+01|
|          64|  1.7297e+00|   -3.037908|    0.610579|    0.038710|           5|   -1.369337|  5.0000e+01|  5.0000e+01|  5.0000e+01|
|          65|  1.7324e+00|   -3.046595|    0.619950|    0.037333|           5|   -1.260815|  5.0000e+01|  5.0000e+01|  5.0000e+01|
|          66|  1.7363e+00|   -3.047350|    0.628829|    0.035983|           5|   -0.924668|  5.0000e+01|  5.0000e+01|  5.0000e+01|
|          67|  1.7393e+00|   -3.005983|    0.637280|    0.034576|           5|   -1.465651|  5.0000e+01|  5.0000e+01|  5.0000e+01|
|          68|  1.7416e+00|   -3.033083|    0.645585|    0.033173|           5|   -1.422818|  5.0000e+01|  5.0000e+01|  5.0000e+01|
|          69|  1.7444e+00|   -3.051521|    0.653170|    0.031816|           5|   -1.113280|  5.0000e+01|  5.0000e+01|  5.0000e+01|
|          70|  1.7469e+00|   -3.011079|    0.660671|    0.030445|           5|   -1.388912|  5.0000e+01|  5.0000e+01|  5.0000e+01|
|          71|  1.7490e+00|   -3.044975|    0.667733|    0.029140|           5|   -1.195550|  5.0000e+01|  5.0000e+01|  5.0000e+01|
|          72|  1.7516e+00|   -3.066097|    0.674862|    0.027863|           5|   -1.266488|  5.0000e+01|  5.0000e+01|  5.0000e+01|
|          73|  1.7544e+00|   -3.083589|    0.681322|    0.026574|           5|   -1.335874|  5.0000e+01|  5.0000e+01|  5.0000e+01|
|          74|  1.7571e+00|   -3.084045|    0.687354|    0.025320|           5|   -1.248844|  5.0000e+01|  5.0000e+01|  5.0000e+01|
|          75|  1.7599e+00|   -3.091706|    0.693255|    0.024121|           5|   -1.417710|  5.0000e+01|  5.0000e+01|  5.0000e+01|
|          76|  1.7616e+00|   -3.135402|    0.698925|    0.022993|           5|   -1.092754|  5.0000e+01|  5.0000e+01|  5.0000e+01|
|          77|  1.7648e+00|   -3.118252|    0.704292|    0.021902|           5|   -1.400014|  5.0000e+01|  5.0000e+01|  5.0000e+01|
|          78|  1.7662e+00|   -3.181323|    0.708792|    0.020904|           5|   -0.767913|  5.0000e+01|  5.0000e+01|  5.0000e+01|
|          79|  1.7693e+00|   -3.105746|    0.712961|    0.019980|           5|   -0.865781|  5.0000e+01|  5.0000e+01|  5.0000e+01|
|          80|  1.7749e+00|   -3.136079|    0.717558|    0.019135|           5|   -1.189072|  5.0000e+01|  5.0000e+01|  5.0000e+01|
|          81|  1.7786e+00|   -3.126360|    0.721889|    0.018339|           5|   -1.561254|  5.0000e+01|  5.0000e+01|  5.0000e+01|
|          82|  1.7794e+00|   -3.216439|    0.725849|    0.017647|           5|   -1.076344|  5.0000e+01|  5.0000e+01|  5.0000e+01|
|          83|  1.7815e+00|   -3.209535|    0.729178|    0.016988|           5|   -1.182119|  5.0000e+01|  5.0000e+01|  5.0000e+01|
|          84|  1.7839e+00|   -3.300237|    0.731728|    0.016417|           5|   -0.921477|  5.0000e+01|  5.0000e+01|  5.0000e+01|
|          85|  1.7850e+00|   -3.340802|    0.734039|    0.015913|           5|   -1.227877|  5.0000e+01|  5.0000e+01|  5.0000e+01|
|          86|  1.7901e+00|   -3.325118|    0.735531|    0.015447|           5|   -1.011265|  5.0000e+01|  5.0000e+01|  5.0000e+01|
|          87|  1.7919e+00|   -3.336685|    0.737260|    0.015150|           5|   -1.440467|  5.0000e+01|  5.0000e+01|  5.0000e+01|
|          88|  1.7933e+00|   -3.323269|    0.739892|    0.015205|           5|   -0.813671|  5.0000e+01|  5.0000e+01|  5.0000e+01|
|          89|  1.7954e+00|   -3.386072|    0.740592|    0.015056|           5|   -1.231806|  5.0000e+01|  5.0000e+01|  5.0000e+01|
|          90|  1.7971e+00|   -3.363573|    0.741963|    0.015182|           5|   -1.032191|  5.0000e+01|  5.0000e+01|  5.0000e+01|
|          91|  1.7977e+00|   -3.452620|    0.742755|    0.015474|           5|   -0.814852|  5.0000e+01|  5.0000e+01|  5.0000e+01|
|          92|  1.7997e+00|   -3.443046|    0.744333|    0.015857|           5|   -1.123887|  5.0000e+01|  5.0000e+01|  5.0000e+01|
|          93|  1.8020e+00|   -3.405316|    0.745231|    0.016338|           5|   -0.981268|  5.0000e+01|  5.0000e+01|  5.0000e+01|
|          94|  1.8037e+00|   -3.354541|    0.745809|    0.016917|           5|   -0.907388|  5.0000e+01|  5.0000e+01|  5.0000e+01|
|          95|  1.8045e+00|   -3.374606|    0.746014|    0.017591|           5|   -1.277327|  5.0000e+01|  5.0000e+01|  5.0000e+01|
|          96|  1.8051e+00|   -3.398165|    0.745588|    0.018301|           5|   -1.353478|  5.0000e+01|  5.0000e+01|  5.0000e+01|
|          97|  1.8060e+00|   -3.389503|    0.744507|    0.018983|           5|   -0.912334|  5.0000e+01|  5.0000e+01|  5.0000e+01|
|          98|  1.8072e+00|   -3.336844|    0.743085|    0.019690|           5|   -0.850108|  5.0000e+01|  5.0000e+01|  5.0000e+01|
|          99|  1.8083e+00|   -3.427303|    0.741635|    0.020560|           5|   -0.926286|  5.0000e+01|  5.0000e+01|  5.0000e+01|
|         100|  1.8113e+00|   -3.446877|    0.740270|    0.021495|           5|   -0.959047|  5.0000e+01|  5.0000e+01|  5.0000e+01|
|         101|  1.8119e+00|   -3.452539|    0.739317|    0.022537|           5|   -1.295812|  5.0000e+01|  5.0000e+01|  5.0000e+01|
|         102|  1.8121e+00|   -3.455096|    0.738302|    0.023761|           5|   -1.212724|  5.0000e+01|  5.0000e+01|  5.0000e+01|
|         103|  1.8125e+00|   -3.473617|    0.737538|    0.025001|           5|   -1.070193|  5.0000e+01|  5.0000e+01|  5.0000e+01|
|         104|  1.8131e+00|   -3.287368|    0.737029|    0.026333|           5|   -1.335125|  5.0000e+01|  5.0000e+01|  5.0000e+01|
|         105|  1.8133e+00|   -3.487963|    0.735517|    0.027381|           5|   -0.889309|  5.0000e+01|  5.0000e+01|  5.0000e+01|
|         106|  1.8145e+00|   -3.509757|    0.734107|    0.028608|           5|   -1.246328|  5.0000e+01|  5.0000e+01|  5.0000e+01|
|         107|  1.8148e+00|   -3.544123|    0.732647|    0.029822|           5|   -1.398932|  5.0000e+01|  5.0000e+01|  5.0000e+01|
|         108|  1.8161e+00|   -3.569893|    0.731185|    0.031041|           5|   -1.109296|  5.0000e+01|  5.0000e+01|  5.0000e+01|
|         109|  1.8186e+00|   -3.548160|    0.729512|    0.032129|           5|   -0.772303|  5.0000e+01|  5.0000e+01|  5.0000e+01|
|         110|  1.8209e+00|   -3.463211|    0.728110|    0.033277|           5|   -1.242226|  5.0000e+01|  5.0000e+01|  5.0000e+01|
|         111|  1.8217e+00|   -3.460214|    0.726281|    0.034125|           5|   -0.673504|  5.0000e+01|  5.0000e+01|  5.0000e+01|
|         112|  1.8222e+00|   -3.588580|    0.724761|    0.035186|           5|   -1.134577|  5.0000e+01|  5.0000e+01|  5.0000e+01|
|         113|  1.8236e+00|   -3.563577|    0.723186|    0.036184|           5|   -1.226095|  5.0000e+01|  5.0000e+01|  5.0000e+01|
|         114|  1.8242e+00|   -3.520260|    0.721645|    0.037120|           5|   -1.189532|  5.0000e+01|  5.0000e+01|  5.0000e+01|
|         115|  1.8255e+00|   -3.591086|    0.720008|    0.038011|           5|   -1.128003|  5.0000e+01|  5.0000e+01|  5.0000e+01|
|         116|  1.8258e+00|   -3.598509|    0.718634|    0.038803|           5|   -0.986474|  5.0000e+01|  5.0000e+01|  5.0000e+01|
|         117|  1.8264e+00|   -3.556155|    0.716609|    0.039545|           5|   -1.210517|  5.0000e+01|  5.0000e+01|  5.0000e+01|
|         118|  1.8265e+00|   -3.551188|    0.714453|    0.040201|           5|   -0.871613|  5.0000e+01|  5.0000e+01|  5.0000e+01|
|         119|  1.8283e+00|   -3.559299|    0.713173|    0.040837|           5|   -1.095172|  5.0000e+01|  5.0000e+01|  5.0000e+01|
|         120|  1.8308e+00|   -3.557115|    0.711848|    0.041406|           5|   -1.138117|  5.0000e+01|  5.0000e+01|  5.0000e+01|
|         121|  1.8303e+00|   -3.583579|    0.710416|    0.041906|           5|   -0.940697|  5.0000e+01|  5.0000e+01|  5.0000e+01|
|         122|  1.8316e+00|   -3.616671|    0.708885|    0.042327|           5|   -1.142418|  5.0000e+01|  5.0000e+01|  5.0000e+01|
|         123|  1.8349e+00|   -3.633810|    0.707485|    0.042701|           5|   -1.151858|  5.0000e+01|  5.0000e+01|  5.0000e+01|
|         124|  1.8387e+00|   -3.708842|    0.705766|    0.042951|           5|   -1.283625|  5.0000e+01|  5.0000e+01|  5.0000e+01|
|         125|  1.8390e+00|   -3.700616|    0.703700|    0.043075|           5|   -0.966372|  5.0000e+01|  5.0000e+01|  5.0000e+01|
|         126|  1.8405e+00|   -3.697454|    0.701579|    0.043070|           5|   -1.276747|  5.0000e+01|  5.0000e+01|  5.0000e+01|
|         127|  1.8414e+00|   -3.670747|    0.699822|    0.043028|           5|   -1.352275|  5.0000e+01|  5.0000e+01|  5.0000e+01|
|         128|  1.8427e+00|   -3.701969|    0.698618|    0.042958|           5|   -1.299269|  5.0000e+01|  5.0000e+01|  5.0000e+01|
|         129|  1.8460e+00|   -3.727505|    0.697798|    0.042837|           5|   -1.187932|  5.0000e+01|  5.0000e+01|  5.0000e+01|
|         130|  1.8502e+00|   -3.761458|    0.697241|    0.042649|           5|   -1.043458|  5.0000e+01|  5.0000e+01|  5.0000e+01|
|         131|  1.8557e+00|   -3.760730|    0.696937|    0.042387|           5|   -1.154340|  5.0000e+01|  5.0000e+01|  5.0000e+01|
|         132|  1.8618e+00|   -3.704390|    0.696541|    0.042020|           5|   -1.035470|  5.0000e+01|  5.0000e+01|  5.0000e+01|
|         133|  1.8674e+00|   -3.699343|    0.696209|    0.041547|           5|   -1.155511|  5.0000e+01|  5.0000e+01|  5.0000e+01|
|         134|  1.8729e+00|   -3.702878|    0.695911|    0.040964|           5|   -1.375509|  5.0000e+01|  5.0000e+01|  5.0000e+01|
|         135|  1.8778e+00|   -3.785008|    0.695733|    0.040283|           5|   -1.140379|  5.0000e+01|  5.0000e+01|  5.0000e+01|
|         136|  1.8821e+00|   -3.764131|    0.695767|    0.039541|           5|   -0.868684|  5.0000e+01|  5.0000e+01|  5.0000e+01|
|         137|  1.8887e+00|   -3.701955|    0.696180|    0.038699|           5|   -1.135273|  5.0000e+01|  5.0000e+01|  5.0000e+01|
|         138|  1.8925e+00|   -3.652978|    0.696746|    0.037781|           5|   -1.199871|  5.0000e+01|  5.0000e+01|  5.0000e+01|
|         139|  1.8976e+00|   -3.547514|    0.697575|    0.036796|           5|   -1.277244|  5.0000e+01|  5.0000e+01|  5.0000e+01|
|         140|  1.9021e+00|   -3.645561|    0.698496|    0.035720|           5|   -1.365802|  5.0000e+01|  5.0000e+01|  5.0000e+01|
|         141|  1.9068e+00|   -3.751084|    0.699558|    0.034670|           5|   -0.816733|  5.0000e+01|  5.0000e+01|  5.0000e+01|
|         142|  1.9104e+00|   -3.780616|    0.700128|    0.033432|           5|   -0.953649|  5.0000e+01|  5.0000e+01|  5.0000e+01|
|         143|  1.9164e+00|   -3.762236|    0.700951|    0.032100|           5|   -1.385920|  5.0000e+01|  5.0000e+01|  5.0000e+01|
|         144|  1.9205e+00|   -3.746859|    0.701854|    0.030688|           5|   -1.188308|  5.0000e+01|  5.0000e+01|  5.0000e+01|
|         145|  1.9269e+00|   -3.794715|    0.702831|    0.029267|           5|   -1.000626|  5.0000e+01|  5.0000e+01|  5.0000e+01|
|         146|  1.9314e+00|   -3.768480|    0.704029|    0.027782|           5|   -1.272372|  5.0000e+01|  5.0000e+01|  5.0000e+01|
|         147|  1.9358e+00|   -3.734768|    0.705397|    0.026276|           5|   -1.107340|  5.0000e+01|  5.0000e+01|  5.0000e+01|
|         148|  1.9415e+00|   -3.836817|    0.706632|    0.024813|           5|   -0.811805|  5.0000e+01|  5.0000e+01|  5.0000e+01|
|         149|  1.9464e+00|   -3.566133|    0.708245|    0.023270|           5|   -1.293011|  5.0000e+01|  5.0000e+01|  5.0000e+01|
|         150|  1.9469e+00|   -3.724109|    0.709492|    0.021733|           5|   -1.074388|  5.0000e+01|  5.0000e+01|  5.0000e+01|
|         151|  1.9495e+00|   -3.714094|    0.711463|    0.020246|           5|   -1.411224|  5.0000e+01|  5.0000e+01|  5.0000e+01|
|         152|  1.9495e+00|   -3.735397|    0.713167|    0.018765|           5|   -1.287781|  5.0000e+01|  5.0000e+01|  5.0000e+01|
|         153|  1.9508e+00|   -3.714649|    0.714751|    0.017339|           5|   -1.059815|  5.0000e+01|  5.0000e+01|  5.0000e+01|
|         154|  1.9564e+00|   -3.783823|    0.716408|    0.015924|           5|   -1.243930|  5.0000e+01|  5.0000e+01|  5.0000e+01|
|         155|  1.9576e+00|   -3.753576|    0.718081|    0.014550|           5|   -1.148930|  5.0000e+01|  5.0000e+01|  5.0000e+01|
|         156|  1.9590e+00|   -3.695365|    0.719781|    0.013220|           5|   -1.472030|  5.0000e+01|  5.0000e+01|  5.0000e+01|
|         157|  1.9597e+00|   -3.759286|    0.721567|    0.011950|           5|   -1.415153|  5.0000e+01|  5.0000e+01|  5.0000e+01|
|         158|  1.9605e+00|   -3.774787|    0.723398|    0.010753|           5|   -1.320268|  5.0000e+01|  5.0000e+01|  5.0000e+01|
|         159|  1.9625e+00|   -3.874719|    0.725286|    0.009641|           5|   -1.068923|  5.0000e+01|  5.0000e+01|  5.0000e+01|
|         160|  1.9624e+00|   -3.730854|    0.727190|    0.008617|           5|   -0.861881|  5.0000e+01|  5.0000e+01|  5.0000e+01|
|         161|  1.9628e+00|   -3.757562|    0.729068|    0.007667|           5|   -1.047432|  5.0000e+01|  5.0000e+01|  5.0000e+01|
|         162|  1.9647e+00|   -3.795791|    0.730532|    0.006677|           5|   -1.170968|  5.0000e+01|  5.0000e+01|  5.0000e+01|
|         163|  1.9648e+00|   -3.774907|    0.732669|    0.005963|           5|   -1.052842|  5.0000e+01|  5.0000e+01|  5.0000e+01|
|         164|  1.9644e+00|   -3.767662|    0.734655|    0.005289|           5|   -1.054333|  5.0000e+01|  5.0000e+01|  5.0000e+01|
|         165|  1.9646e+00|   -3.790764|    0.736355|    0.004707|           5|   -0.806639|  5.0000e+01|  5.0000e+01|  5.0000e+01|
|         166|  1.9645e+00|   -3.805062|    0.738167|    0.004184|           5|   -0.896473|  5.0000e+01|  5.0000e+01|  5.0000e+01|
|         167|  1.9644e+00|   -3.858844|    0.739950|    0.003725|           5|   -1.438799|  5.0000e+01|  5.0000e+01|  5.0000e+01|
|         168|  1.9646e+00|   -3.906311|    0.741729|    0.003365|           5|   -1.262699|  5.0000e+01|  5.0000e+01|  5.0000e+01|
|         169|  1.9652e+00|   -3.837451|    0.743459|    0.003087|           5|   -1.428007|  5.0000e+01|  5.0000e+01|  5.0000e+01|
|         170|  1.9657e+00|   -3.957887|    0.745257|    0.002974|           5|   -1.056643|  5.0000e+01|  5.0000e+01|  5.0000e+01|
|         171|  1.9665e+00|   -3.957427|    0.746670|    0.002846|           5|   -1.338772|  5.0000e+01|  5.0000e+01|  5.0000e+01|
|         172|  1.9674e+00|   -3.998284|    0.748181|    0.002843|           5|   -1.126208|  5.0000e+01|  5.0000e+01|  5.0000e+01|
|         173|  1.9677e+00|   -4.017095|    0.749856|    0.002922|           5|   -1.003140|  5.0000e+01|  5.0000e+01|  5.0000e+01|
|         174|  1.9673e+00|   -4.009001|    0.751002|    0.003099|           5|   -1.069050|  5.0000e+01|  5.0000e+01|  5.0000e+01|
|         175|  1.9689e+00|   -4.032464|    0.752187|    0.003376|           5|   -0.989933|  5.0000e+01|  5.0000e+01|  5.0000e+01|
|         176|  1.9690e+00|   -3.997745|    0.753435|    0.003701|           5|   -1.458918|  5.0000e+01|  5.0000e+01|  5.0000e+01|
|         177|  1.9685e+00|   -4.068830|    0.754752|    0.004094|           5|   -1.208545|  5.0000e+01|  5.0000e+01|  5.0000e+01|
|         178|  1.9685e+00|   -4.065398|    0.755670|    0.004583|           5|   -1.322602|  5.0000e+01|  5.0000e+01|  5.0000e+01|
|         179|  1.9683e+00|   -4.085574|    0.756586|    0.005135|           5|   -1.247782|  5.0000e+01|  5.0000e+01|  5.0000e+01|
|         180|  1.9698e+00|   -4.091786|    0.757479|    0.005729|           5|   -1.377392|  5.0000e+01|  5.0000e+01|  5.0000e+01|
|         181|  1.9701e+00|   -4.082119|    0.758256|    0.006373|           5|   -1.308410|  5.0000e+01|  5.0000e+01|  5.0000e+01|
|         182|  1.9698e+00|   -4.100998|    0.758982|    0.007056|           5|   -1.069276|  5.0000e+01|  5.0000e+01|  5.0000e+01|
|         183|  1.9712e+00|   -4.100716|    0.759694|    0.007779|           5|   -1.030986|  5.0000e+01|  5.0000e+01|  5.0000e+01|
|         184|  1.9711e+00|   -4.106665|    0.760212|    0.008551|           5|   -1.388590|  5.0000e+01|  5.0000e+01|  5.0000e+01|
|         185|  1.9712e+00|   -4.116364|    0.760729|    0.009353|           5|   -1.389971|  5.0000e+01|  5.0000e+01|  5.0000e+01|
|         186|  1.9710e+00|   -4.122906|    0.761204|    0.010165|           5|   -1.092418|  5.0000e+01|  5.0000e+01|  5.0000e+01|
|         187|  1.9710e+00|   -4.130459|    0.761557|    0.011000|           5|   -1.257986|  5.0000e+01|  5.0000e+01|  5.0000e+01|
|         188|  1.9704e+00|   -4.138735|    0.761809|    0.011841|           5|   -1.230362|  5.0000e+01|  5.0000e+01|  5.0000e+01|
|         189|  1.9701e+00|   -4.139898|    0.761989|    0.012691|           5|   -1.322423|  5.0000e+01|  5.0000e+01|  5.0000e+01|
|         190|  1.9687e+00|   -4.152880|    0.762100|    0.013542|           5|   -1.389098|  5.0000e+01|  5.0000e+01|  5.0000e+01|
|         191|  1.9687e+00|   -4.159416|    0.762124|    0.014388|           5|   -1.180103|  5.0000e+01|  5.0000e+01|  5.0000e+01|
|         192|  1.9689e+00|   -4.165156|    0.762194|    0.015206|           5|   -1.029876|  5.0000e+01|  5.0000e+01|  5.0000e+01|
|         193|  1.9681e+00|   -4.165892|    0.761919|    0.015959|           5|   -0.855031|  5.0000e+01|  5.0000e+01|  5.0000e+01|
|         194|  1.9679e+00|   -4.158766|    0.762007|    0.016794|           5|   -1.243895|  5.0000e+01|  5.0000e+01|  5.0000e+01|
|         195|  1.9676e+00|   -4.182618|    0.761928|    0.017589|           5|   -1.570480|  5.0000e+01|  5.0000e+01|  5.0000e+01|
|         196|  1.9673e+00|   -4.192689|    0.761727|    0.018349|           5|   -1.330121|  5.0000e+01|  5.0000e+01|  5.0000e+01|
|         197|  1.9667e+00|   -4.198452|    0.761489|    0.019076|           5|   -1.170757|  5.0000e+01|  5.0000e+01|  5.0000e+01|
|         198|  1.9664e+00|   -4.206121|    0.761275|    0.019768|           5|   -1.283356|  5.0000e+01|  5.0000e+01|  5.0000e+01|
|         199|  1.9666e+00|   -4.206429|    0.760933|    0.020452|           5|   -1.322166|  5.0000e+01|  5.0000e+01|  5.0000e+01|
|         200|  1.9668e+00|   -4.221647|    0.760672|    0.021091|           5|   -1.104069|  5.0000e+01|  5.0000e+01|  5.0000e+01|
|         201|  1.9673e+00|   -4.226158|    0.760330|    0.021701|           5|   -1.276571|  5.0000e+01|  5.0000e+01|  5.0000e+01|
|         202|  1.9676e+00|   -4.231730|    0.759994|    0.022276|           5|   -1.463011|  5.0000e+01|  5.0000e+01|  5.0000e+01|
|         203|  1.9676e+00|   -4.234864|    0.759662|    0.022806|           5|   -1.242733|  5.0000e+01|  5.0000e+01|  5.0000e+01|
|         204|  1.9673e+00|   -4.222246|    0.759324|    0.023302|           5|   -1.131376|  5.0000e+01|  5.0000e+01|  5.0000e+01|
|         205|  1.9672e+00|   -4.235664|    0.758982|    0.023762|           5|   -1.214206|  5.0000e+01|  5.0000e+01|  5.0000e+01|
|         206|  1.9670e+00|   -4.255119|    0.758622|    0.024183|           5|   -1.173645|  5.0000e+01|  5.0000e+01|  5.0000e+01|
|         207|  1.9669e+00|   -4.262753|    0.758253|    0.024563|           5|   -0.987196|  5.0000e+01|  5.0000e+01|  5.0000e+01|
|         208|  1.9665e+00|   -4.253140|    0.757895|    0.024912|           5|   -1.132905|  5.0000e+01|  5.0000e+01|  5.0000e+01|
|         209|  1.9667e+00|   -4.253117|    0.757476|    0.025227|           5|   -1.256775|  5.0000e+01|  5.0000e+01|  5.0000e+01|
|         210|  1.9663e+00|   -4.230846|    0.757065|    0.025508|           5|   -1.215977|  5.0000e+01|  5.0000e+01|  5.0000e+01|
|         211|  1.9664e+00|   -4.210227|    0.756581|    0.025741|           5|   -1.154731|  5.0000e+01|  5.0000e+01|  5.0000e+01|
|         212|  1.9667e+00|   -4.106974|    0.756154|    0.025946|           5|   -1.127725|  5.0000e+01|  5.0000e+01|  5.0000e+01|
|         213|  1.9668e+00|   -4.219079|    0.755745|    0.026104|           5|   -0.843296|  5.0000e+01|  5.0000e+01|  5.0000e+01|
|         214|  1.9667e+00|   -4.267437|    0.755157|    0.026243|           5|   -0.966028|  5.0000e+01|  5.0000e+01|  5.0000e+01|
|         215|  1.9669e+00|   -4.243108|    0.754592|    0.026349|           5|   -0.778066|  5.0000e+01|  5.0000e+01|  5.0000e+01|
|         216|  1.9674e+00|   -4.220170|    0.754300|    0.026400|           5|   -1.258394|  5.0000e+01|  5.0000e+01|  5.0000e+01|
|         217|  1.9677e+00|   -4.262277|    0.753850|    0.026430|           5|   -0.982120|  5.0000e+01|  5.0000e+01|  5.0000e+01|
|         218|  1.9674e+00|   -4.171127|    0.753379|    0.026433|           5|   -1.049040|  5.0000e+01|  5.0000e+01|  5.0000e+01|
|         219|  1.9671e+00|   -4.241325|    0.752911|    0.026401|           5|   -0.942569|  5.0000e+01|  5.0000e+01|  5.0000e+01|
|         220|  1.9672e+00|   -4.229160|    0.752446|    0.026344|           5|   -0.944487|  5.0000e+01|  5.0000e+01|  5.0000e+01|
|         221|  1.9684e+00|   -4.226196|    0.752018|    0.026259|           5|   -0.879905|  5.0000e+01|  5.0000e+01|  5.0000e+01|
|         222|  1.9681e+00|   -4.210879|    0.751571|    0.026151|           5|   -1.086841|  5.0000e+01|  5.0000e+01|  5.0000e+01|
|         223|  1.9681e+00|   -4.235825|    0.751201|    0.026007|           5|   -0.951234|  5.0000e+01|  5.0000e+01|  5.0000e+01|
|         224|  1.9686e+00|   -4.181628|    0.750850|    0.025842|           5|   -1.048117|  5.0000e+01|  5.0000e+01|  5.0000e+01|
|         225|  1.9682e+00|   -4.042058|    0.750488|    0.025644|           5|   -1.242285|  5.0000e+01|  5.0000e+01|  5.0000e+01|
|         226|  1.9682e+00|   -4.138332|    0.750152|    0.025418|           5|   -1.117859|  5.0000e+01|  5.0000e+01|  5.0000e+01|
|         227|  1.9682e+00|   -4.128553|    0.749852|    0.025178|           5|   -0.915714|  5.0000e+01|  5.0000e+01|  5.0000e+01|
|         228|  1.9690e+00|   -3.998514|    0.749588|    0.024920|           5|   -0.902231|  5.0000e+01|  5.0000e+01|  5.0000e+01|
|         229|  1.9688e+00|   -3.964978|    0.749457|    0.024606|           5|   -1.207865|  5.0000e+01|  5.0000e+01|  5.0000e+01|
|         230|  1.9689e+00|   -4.092345|    0.749100|    0.024309|           5|   -1.088713|  5.0000e+01|  5.0000e+01|  5.0000e+01|
|         231|  1.9687e+00|   -4.086324|    0.748866|    0.023979|           5|   -1.109970|  5.0000e+01|  5.0000e+01|  5.0000e+01|
|         232|  1.9685e+00|   -4.111241|    0.748662|    0.023624|           5|   -1.058755|  5.0000e+01|  5.0000e+01|  5.0000e+01|
|         233|  1.9682e+00|   -3.979268|    0.748481|    0.023252|           5|   -1.212514|  5.0000e+01|  5.0000e+01|  5.0000e+01|
|         234|  1.9678e+00|   -3.994980|    0.748286|    0.022856|           5|   -1.149937|  5.0000e+01|  5.0000e+01|  5.0000e+01|
|         235|  1.9673e+00|   -4.049941|    0.748530|    0.022651|           5|   -0.536038|  5.0000e+01|  5.0000e+01|  5.0000e+01|
|         236|  1.9657e+00|   -3.867877|    0.748036|    0.022165|           5|   -1.264190|  5.0000e+01|  5.0000e+01|  5.0000e+01|
|         237|  1.9652e+00|   -4.015282|    0.747829|    0.021748|           5|   -0.804790|  5.0000e+01|  5.0000e+01|  5.0000e+01|
|         238|  1.9651e+00|   -3.930414|    0.747689|    0.021295|           5|   -1.088030|  5.0000e+01|  5.0000e+01|  5.0000e+01|
|         239|  1.9652e+00|   -3.943514|    0.747561|    0.020828|           5|   -1.088902|  5.0000e+01|  5.0000e+01|  5.0000e+01|
|         240|  1.9656e+00|   -3.899554|    0.747436|    0.020370|           5|   -1.261586|  5.0000e+01|  5.0000e+01|  5.0000e+01|
|         241|  1.9660e+00|   -3.928590|    0.747314|    0.019914|           5|   -1.134462|  5.0000e+01|  5.0000e+01|  5.0000e+01|
|         242|  1.9659e+00|   -3.904418|    0.747179|    0.019448|           5|   -0.856346|  5.0000e+01|  5.0000e+01|  5.0000e+01|
|         243|  1.9669e+00|   -4.023367|    0.747099|    0.018957|           5|   -1.187999|  5.0000e+01|  5.0000e+01|  5.0000e+01|
|         244|  1.9668e+00|   -4.063741|    0.747027|    0.018477|           5|   -1.168819|  5.0000e+01|  5.0000e+01|  5.0000e+01|
|         245|  1.9668e+00|   -4.122640|    0.746950|    0.018013|           5|   -1.069650|  5.0000e+01|  5.0000e+01|  5.0000e+01|
|         246|  1.9667e+00|   -4.140675|    0.746888|    0.017527|           5|   -1.188347|  5.0000e+01|  5.0000e+01|  5.0000e+01|
|         247|  1.9667e+00|   -4.142342|    0.746747|    0.017071|           5|   -0.893824|  5.0000e+01|  5.0000e+01|  5.0000e+01|
|         248|  1.9668e+00|   -4.222388|    0.746738|    0.016689|           5|   -0.674492|  5.0000e+01|  5.0000e+01|  5.0000e+01|
|         249|  1.9676e+00|   -4.219950|    0.746686|    0.016237|           5|   -0.958075|  5.0000e+01|  5.0000e+01|  5.0000e+01|
|         250|  1.9665e+00|   -4.007894|    0.746657|    0.015784|           5|   -1.369567|  5.0000e+01|  5.0000e+01|  5.0000e+01|
|         251|  1.9664e+00|   -4.235437|    0.746623|    0.015340|           5|   -1.144772|  5.0000e+01|  5.0000e+01|  5.0000e+01|
|         252|  1.9665e+00|   -4.247295|    0.746605|    0.014909|           5|   -1.135305|  5.0000e+01|  5.0000e+01|  5.0000e+01|
|         253|  1.9667e+00|   -4.332751|    0.746583|    0.014493|           5|   -1.190261|  5.0000e+01|  5.0000e+01|  5.0000e+01|
|         254|  1.9664e+00|   -4.349384|    0.746390|    0.014134|           5|   -0.780541|  5.0000e+01|  5.0000e+01|  5.0000e+01|
|         255|  1.9679e+00|   -4.346272|    0.746516|    0.013737|           5|   -1.205007|  5.0000e+01|  5.0000e+01|  5.0000e+01|
|         256|  1.9674e+00|   -4.384343|    0.746498|    0.013362|           5|   -1.202824|  5.0000e+01|  5.0000e+01|  5.0000e+01|
|         257|  1.9677e+00|   -4.377183|    0.746337|    0.012991|           5|   -1.078211|  5.0000e+01|  5.0000e+01|  5.0000e+01|
|         258|  1.9676e+00|   -4.370892|    0.746332|    0.012663|           5|   -1.186404|  5.0000e+01|  5.0000e+01|  5.0000e+01|
|         259|  1.9680e+00|   -4.396929|    0.746301|    0.012348|           5|   -0.980498|  5.0000e+01|  5.0000e+01|  5.0000e+01|
|         260|  1.9689e+00|   -4.337920|    0.746219|    0.012051|           5|   -1.210002|  5.0000e+01|  5.0000e+01|  5.0000e+01|
|         261|  1.9691e+00|   -4.408028|    0.746125|    0.011778|           5|   -1.063844|  5.0000e+01|  5.0000e+01|  5.0000e+01|
|         262|  1.9690e+00|   -4.405440|    0.746010|    0.011526|           5|   -1.103776|  5.0000e+01|  5.0000e+01|  5.0000e+01|
|         263|  1.9688e+00|   -4.400996|    0.745821|    0.011291|           5|   -1.164925|  5.0000e+01|  5.0000e+01|  5.0000e+01|
|         264|  1.9688e+00|   -4.409895|    0.745744|    0.011094|           5|   -1.223608|  5.0000e+01|  5.0000e+01|  5.0000e+01|
|         265|  1.9689e+00|   -4.418834|    0.745622|    0.010924|           5|   -1.181177|  5.0000e+01|  5.0000e+01|  5.0000e+01|
|         266|  1.9703e+00|   -4.419143|    0.745491|    0.010779|           5|   -1.401823|  5.0000e+01|  5.0000e+01|  5.0000e+01|
|         267|  1.9705e+00|   -4.411551|    0.745243|    0.010648|           5|   -1.074220|  5.0000e+01|  5.0000e+01|  5.0000e+01|
|         268|  1.9705e+00|   -4.398205|    0.745167|    0.010561|           5|   -0.952969|  5.0000e+01|  5.0000e+01|  5.0000e+01|
|         269|  1.9705e+00|   -4.391274|    0.745063|    0.010494|           5|   -1.118778|  5.0000e+01|  5.0000e+01|  5.0000e+01|
|         270|  1.9704e+00|   -4.415579|    0.744936|    0.010450|           5|   -1.076934|  5.0000e+01|  5.0000e+01|  5.0000e+01|
|         271|  1.9707e+00|   -4.408495|    0.744763|    0.010432|           5|   -1.023036|  5.0000e+01|  5.0000e+01|  5.0000e+01|
|         272|  1.9715e+00|   -4.408117|    0.744920|    0.010444|           5|   -1.093798|  5.0000e+01|  5.0000e+01|  5.0000e+01|
|         273|  1.9715e+00|   -4.366215|    0.744599|    0.010447|           5|   -0.916302|  5.0000e+01|  5.0000e+01|  5.0000e+01|
|         274|  1.9712e+00|   -4.409198|    0.744404|    0.010472|           5|   -0.579467|  5.0000e+01|  5.0000e+01|  5.0000e+01|
|         275|  1.9711e+00|   -4.395722|    0.744218|    0.010520|           5|   -1.045703|  5.0000e+01|  5.0000e+01|  5.0000e+01|
|         276|  1.9711e+00|   -4.422438|    0.744047|    0.010589|           5|   -0.938318|  5.0000e+01|  5.0000e+01|  5.0000e+01|
|         277|  1.9713e+00|   -4.423601|    0.743863|    0.010677|           5|   -1.013541|  5.0000e+01|  5.0000e+01|  5.0000e+01|
|         278|  1.9720e+00|   -4.426073|    0.743691|    0.010784|           5|   -0.988824|  5.0000e+01|  5.0000e+01|  5.0000e+01|
|         279|  1.9722e+00|   -4.410321|    0.743501|    0.010908|           5|   -1.054714|  5.0000e+01|  5.0000e+01|  5.0000e+01|
|         280|  1.9722e+00|   -4.420190|    0.743317|    0.011049|           5|   -0.957526|  5.0000e+01|  5.0000e+01|  5.0000e+01|
|         281|  1.9722e+00|   -4.423886|    0.743142|    0.011210|           5|   -1.222291|  5.0000e+01|  5.0000e+01|  5.0000e+01|
|         282|  1.9732e+00|   -4.432425|    0.742975|    0.011383|           5|   -1.074680|  5.0000e+01|  5.0000e+01|  5.0000e+01|
|         283|  1.9732e+00|   -4.430403|    0.742801|    0.011574|           5|   -1.432691|  5.0000e+01|  5.0000e+01|  5.0000e+01|
|         284|  1.9734e+00|   -4.431702|    0.742633|    0.011770|           5|   -0.999264|  5.0000e+01|  5.0000e+01|  5.0000e+01|
|         285|  1.9733e+00|   -4.434145|    0.742464|    0.011978|           5|   -1.129201|  5.0000e+01|  5.0000e+01|  5.0000e+01|
|         286|  1.9745e+00|   -4.439391|    0.742318|    0.012198|           5|   -1.058998|  5.0000e+01|  5.0000e+01|  5.0000e+01|
|         287|  1.9744e+00|   -4.439037|    0.742130|    0.012430|           5|   -1.107305|  5.0000e+01|  5.0000e+01|  5.0000e+01|
|         288|  1.9743e+00|   -4.442389|    0.742027|    0.012663|           5|   -1.294010|  5.0000e+01|  5.0000e+01|  5.0000e+01|
|         289|  1.9746e+00|   -4.450752|    0.741900|    0.012905|           5|   -1.360659|  5.0000e+01|  5.0000e+01|  5.0000e+01|
|         290|  1.9745e+00|   -4.456489|    0.741774|    0.013152|           5|   -0.989805|  5.0000e+01|  5.0000e+01|  5.0000e+01|
|         291|  1.9743e+00|   -4.455259|    0.741653|    0.013408|           5|   -1.231705|  5.0000e+01|  5.0000e+01|  5.0000e+01|
|         292|  1.9742e+00|   -4.461224|    0.741538|    0.013671|           5|   -1.545230|  5.0000e+01|  5.0000e+01|  5.0000e+01|
|         293|  1.9754e+00|   -4.466182|    0.741418|    0.013938|           5|   -1.475412|  5.0000e+01|  5.0000e+01|  5.0000e+01|
|         294|  1.9755e+00|   -4.453300|    0.741282|    0.014207|           5|   -1.482058|  5.0000e+01|  5.0000e+01|  5.0000e+01|
|         295|  1.9754e+00|   -4.473193|    0.741142|    0.014479|           5|   -1.328394|  5.0000e+01|  5.0000e+01|  5.0000e+01|
|         296|  1.9755e+00|   -4.476558|    0.740986|    0.014748|           5|   -1.001284|  5.0000e+01|  5.0000e+01|  5.0000e+01|
|         297|  1.9755e+00|   -4.480163|    0.740794|    0.015019|           5|   -1.238967|  5.0000e+01|  5.0000e+01|  5.0000e+01|
|         298|  1.9754e+00|   -4.483608|    0.740590|    0.015286|           5|   -1.340556|  5.0000e+01|  5.0000e+01|  5.0000e+01|
|         299|  1.9753e+00|   -4.490440|    0.740361|    0.015549|           5|   -1.184394|  5.0000e+01|  5.0000e+01|  5.0000e+01|
|         300|  1.9753e+00|   -4.486406|    0.740110|    0.015810|           5|   -1.352475|  5.0000e+01|  5.0000e+01|  5.0000e+01|
|         301|  1.9754e+00|   -4.493395|    0.739802|    0.016082|           5|   -1.140945|  5.0000e+01|  5.0000e+01|  5.0000e+01|
|         302|  1.9753e+00|   -4.492066|    0.739569|    0.016317|           5|   -1.066475|  5.0000e+01|  5.0000e+01|  5.0000e+01|
|         303|  1.9750e+00|   -4.500364|    0.739263|    0.016557|           5|   -0.955129|  5.0000e+01|  5.0000e+01|  5.0000e+01|
|         304|  1.9752e+00|   -4.491953|    0.739015|    0.016790|           5|   -1.273817|  5.0000e+01|  5.0000e+01|  5.0000e+01|
|         305|  1.9752e+00|   -4.504489|    0.738746|    0.017019|           5|   -1.244504|  5.0000e+01|  5.0000e+01|  5.0000e+01|
|         306|  1.9755e+00|   -4.497256|    0.738463|    0.017240|           5|   -1.257774|  5.0000e+01|  5.0000e+01|  5.0000e+01|
|         307|  1.9759e+00|   -4.499284|    0.738172|    0.017450|           5|   -1.030732|  5.0000e+01|  5.0000e+01|  5.0000e+01|
|         308|  1.9763e+00|   -4.494198|    0.737921|    0.017639|           5|   -1.127131|  5.0000e+01|  5.0000e+01|  5.0000e+01|
|         309|  1.9765e+00|   -4.504837|    0.737642|    0.017835|           5|   -1.125229|  5.0000e+01|  5.0000e+01|  5.0000e+01|
|         310|  1.9769e+00|   -4.509843|    0.737394|    0.018013|           5|   -1.130288|  5.0000e+01|  5.0000e+01|  5.0000e+01|
|         311|  1.9774e+00|   -4.501305|    0.737029|    0.018164|           5|   -0.938376|  5.0000e+01|  5.0000e+01|  5.0000e+01|
|         312|  1.9775e+00|   -4.432858|    0.736715|    0.018310|           5|   -1.137294|  5.0000e+01|  5.0000e+01|  5.0000e+01|
|         313|  1.9776e+00|   -4.438121|    0.736405|    0.018441|           5|   -1.081779|  5.0000e+01|  5.0000e+01|  5.0000e+01|
|         314|  1.9775e+00|   -4.365063|    0.736092|    0.018557|           5|   -0.896423|  5.0000e+01|  5.0000e+01|  5.0000e+01|
|         315|  1.9774e+00|   -4.335088|    0.735817|    0.018642|           5|   -0.615659|  5.0000e+01|  5.0000e+01|  5.0000e+01|
|         316|  1.9772e+00|   -4.235502|    0.735479|    0.018733|           5|   -1.243901|  5.0000e+01|  5.0000e+01|  5.0000e+01|
|         317|  1.9771e+00|   -4.342480|    0.735159|    0.018803|           5|   -0.935222|  5.0000e+01|  5.0000e+01|  5.0000e+01|
|         318|  1.9770e+00|   -4.321498|    0.734787|    0.018862|           5|   -0.980713|  5.0000e+01|  5.0000e+01|  5.0000e+01|
|         319|  1.9762e+00|   -4.317738|    0.734508|    0.018905|           5|   -0.925505|  5.0000e+01|  5.0000e+01|  5.0000e+01|
|         320|  1.9773e+00|   -4.269114|    0.734211|    0.018932|           5|   -0.917056|  5.0000e+01|  5.0000e+01|  5.0000e+01|
|         321|  1.9767e+00|   -4.014810|    0.733911|    0.018946|           5|   -1.270226|  5.0000e+01|  5.0000e+01|  5.0000e+01|
|         322|  1.9767e+00|   -4.223862|    0.733595|    0.018944|           5|   -0.787877|  5.0000e+01|  5.0000e+01|  5.0000e+01|
|         323|  1.9765e+00|   -4.203513|    0.733264|    0.018926|           5|   -1.064292|  5.0000e+01|  5.0000e+01|  5.0000e+01|
|         324|  1.9764e+00|   -4.264363|    0.732967|    0.018896|           5|   -1.005162|  5.0000e+01|  5.0000e+01|  5.0000e+01|
|         325|  1.9763e+00|   -4.204152|    0.732663|    0.018852|           5|   -0.915455|  5.0000e+01|  5.0000e+01|  5.0000e+01|
|         326|  1.9753e+00|   -4.153787|    0.732345|    0.018793|           5|   -1.170705|  5.0000e+01|  5.0000e+01|  5.0000e+01|
|         327|  1.9749e+00|   -4.197111|    0.732048|    0.018721|           5|   -1.099664|  5.0000e+01|  5.0000e+01|  5.0000e+01|
|         328|  1.9753e+00|   -4.147473|    0.731770|    0.018637|           5|   -1.098756|  5.0000e+01|  5.0000e+01|  5.0000e+01|
|         329|  1.9753e+00|   -4.115509|    0.731505|    0.018542|           5|   -0.928739|  5.0000e+01|  5.0000e+01|  5.0000e+01|
|         330|  1.9752e+00|   -3.913584|    0.731257|    0.018434|           5|   -1.209626|  5.0000e+01|  5.0000e+01|  5.0000e+01|
|         331|  1.9757e+00|   -3.998931|    0.731196|    0.018329|           5|   -0.905620|  5.0000e+01|  5.0000e+01|  5.0000e+01|
|         332|  1.9759e+00|   -4.040731|    0.730860|    0.018192|           5|   -0.848931|  5.0000e+01|  5.0000e+01|  5.0000e+01|
|         333|  1.9770e+00|   -3.926928|    0.730649|    0.018053|           5|   -1.563421|  5.0000e+01|  5.0000e+01|  5.0000e+01|
|         334|  1.9773e+00|   -4.249092|    0.730471|    0.017906|           5|   -1.046841|  5.0000e+01|  5.0000e+01|  5.0000e+01|
|         335|  1.9770e+00|   -3.995784|    0.730285|    0.017744|           5|   -1.264506|  5.0000e+01|  5.0000e+01|  5.0000e+01|
|         336|  1.9765e+00|   -4.154773|    0.730173|    0.017594|           5|   -1.068327|  5.0000e+01|  5.0000e+01|  5.0000e+01|
|         337|  1.9768e+00|   -4.291520|    0.730022|    0.017410|           5|   -1.130039|  5.0000e+01|  5.0000e+01|  5.0000e+01|
|         338|  1.9765e+00|   -4.241561|    0.729898|    0.017230|           5|   -1.103718|  5.0000e+01|  5.0000e+01|  5.0000e+01|
|         339|  1.9766e+00|   -4.379985|    0.729792|    0.017041|           5|   -0.891316|  5.0000e+01|  5.0000e+01|  5.0000e+01|
|         340|  1.9770e+00|   -4.509463|    0.729711|    0.016843|           5|   -0.954809|  5.0000e+01|  5.0000e+01|  5.0000e+01|
|         341|  1.9784e+00|   -4.538100|    0.729633|    0.016651|           5|   -0.901555|  5.0000e+01|  5.0000e+01|  5.0000e+01|
|         342|  1.9792e+00|   -4.500243|    0.729602|    0.016445|           5|   -1.004321|  5.0000e+01|  5.0000e+01|  5.0000e+01|
|         343|  1.9796e+00|   -4.573983|    0.729540|    0.016241|           5|   -0.943994|  5.0000e+01|  5.0000e+01|  5.0000e+01|
|         344|  1.9794e+00|   -4.575430|    0.729501|    0.016043|           5|   -0.884255|  5.0000e+01|  5.0000e+01|  5.0000e+01|
|         345|  1.9796e+00|   -4.567532|    0.729489|    0.015826|           5|   -1.096400|  5.0000e+01|  5.0000e+01|  5.0000e+01|
|         346|  1.9796e+00|   -4.627701|    0.729501|    0.015619|           5|   -0.869192|  5.0000e+01|  5.0000e+01|  5.0000e+01|
|         347|  1.9798e+00|   -4.615707|    0.729500|    0.015410|           5|   -0.981892|  5.0000e+01|  5.0000e+01|  5.0000e+01|
|         348|  1.9801e+00|   -4.612022|    0.729562|    0.015201|           5|   -0.956896|  5.0000e+01|  5.0000e+01|  5.0000e+01|
|         349|  1.9806e+00|   -4.641169|    0.729629|    0.014995|           5|   -0.985385|  5.0000e+01|  5.0000e+01|  5.0000e+01|
|         350|  1.9810e+00|   -4.646418|    0.729730|    0.014794|           5|   -1.058503|  5.0000e+01|  5.0000e+01|  5.0000e+01|
|         351|  1.9813e+00|   -4.656426|    0.729816|    0.014591|           5|   -1.061961|  5.0000e+01|  5.0000e+01|  5.0000e+01|
|         352|  1.9817e+00|   -4.646962|    0.729947|    0.014395|           5|   -1.256058|  5.0000e+01|  5.0000e+01|  5.0000e+01|
|         353|  1.9821e+00|   -4.663871|    0.730100|    0.014203|           5|   -1.385657|  5.0000e+01|  5.0000e+01|  5.0000e+01|
|         354|  1.9825e+00|   -4.665992|    0.730279|    0.014018|           5|   -1.298375|  5.0000e+01|  5.0000e+01|  5.0000e+01|
|         355|  1.9828e+00|   -4.668021|    0.730465|    0.013838|           5|   -1.339253|  5.0000e+01|  5.0000e+01|  5.0000e+01|
|         356|  1.9839e+00|   -4.673510|    0.730669|    0.013666|           5|   -1.369546|  5.0000e+01|  5.0000e+01|  5.0000e+01|
|         357|  1.9846e+00|   -4.676478|    0.730895|    0.013500|           5|   -1.436538|  5.0000e+01|  5.0000e+01|  5.0000e+01|
|         358|  1.9851e+00|   -4.674793|    0.731133|    0.013344|           5|   -1.249871|  5.0000e+01|  5.0000e+01|  5.0000e+01|
|         359|  1.9853e+00|   -4.645809|    0.731375|    0.013194|           5|   -1.170248|  5.0000e+01|  5.0000e+01|  5.0000e+01|
|         360|  1.9865e+00|   -4.680200|    0.731648|    0.013058|           5|   -1.578672|  5.0000e+01|  5.0000e+01|  5.0000e+01|
|         361|  1.9867e+00|   -4.689373|    0.731928|    0.012931|           5|   -1.435909|  5.0000e+01|  5.0000e+01|  5.0000e+01|
|         362|  1.9861e+00|   -4.689810|    0.732212|    0.012815|           5|   -1.487114|  5.0000e+01|  5.0000e+01|  5.0000e+01|
|         363|  1.9865e+00|   -4.683653|    0.732528|    0.012710|           5|   -1.061754|  5.0000e+01|  5.0000e+01|  5.0000e+01|
|         364|  1.9878e+00|   -4.674574|    0.732820|    0.012618|           5|   -1.270939|  5.0000e+01|  5.0000e+01|  5.0000e+01|
|         365|  1.9892e+00|   -4.691414|    0.733080|    0.012540|           5|   -1.143608|  5.0000e+01|  5.0000e+01|  5.0000e+01|
|         366|  1.9899e+00|   -4.688430|    0.733439|    0.012469|           5|   -1.682265|  5.0000e+01|  5.0000e+01|  5.0000e+01|
|         367|  1.9903e+00|   -4.698107|    0.733732|    0.012412|           5|   -1.393476|  5.0000e+01|  5.0000e+01|  5.0000e+01|
|         368|  1.9909e+00|   -4.697189|    0.734090|    0.012370|           5|   -1.624644|  5.0000e+01|  5.0000e+01|  5.0000e+01|
|         369|  1.9916e+00|   -4.695832|    0.734434|    0.012340|           5|   -1.668219|  5.0000e+01|  5.0000e+01|  5.0000e+01|
|         370|  1.9917e+00|   -4.698910|    0.734763|    0.012323|           5|   -1.806945|  5.0000e+01|  5.0000e+01|  5.0000e+01|
|         371|  1.9916e+00|   -4.699877|    0.735093|    0.012318|           5|   -1.781062|  5.0000e+01|  5.0000e+01|  5.0000e+01|
|         372|  1.9919e+00|   -4.699909|    0.735444|    0.012324|           5|   -1.396097|  5.0000e+01|  5.0000e+01|  5.0000e+01|
|         373|  1.9925e+00|   -4.695639|    0.735718|    0.012345|           5|   -1.191417|  5.0000e+01|  5.0000e+01|  5.0000e+01|
|         374|  1.9937e+00|   -4.697632|    0.736032|    0.012376|           5|   -1.437987|  5.0000e+01|  5.0000e+01|  5.0000e+01|
|         375|  1.9943e+00|   -4.698758|    0.736329|    0.012419|           5|   -1.463139|  5.0000e+01|  5.0000e+01|  5.0000e+01|
|         376|  1.9947e+00|   -4.699400|    0.736601|    0.012474|           5|   -1.714613|  5.0000e+01|  5.0000e+01|  5.0000e+01|
|         377|  1.9949e+00|   -4.699940|    0.736865|    0.012541|           5|   -1.573334|  5.0000e+01|  5.0000e+01|  5.0000e+01|
|         378|  1.9949e+00|   -4.699992|    0.737099|    0.012619|           5|   -1.692234|  5.0000e+01|  5.0000e+01|  5.0000e+01|
|         379|  1.9948e+00|   -4.700490|    0.737337|    0.012707|           5|   -1.404263|  5.0000e+01|  5.0000e+01|  5.0000e+01|
|         380|  1.9953e+00|   -4.697147|    0.737544|    0.012807|           5|   -1.764915|  5.0000e+01|  5.0000e+01|  5.0000e+01|
|         381|  1.9960e+00|   -4.700207|    0.737626|    0.012921|           5|   -1.153190|  5.0000e+01|  5.0000e+01|  5.0000e+01|
|         382|  1.9965e+00|   -4.687438|    0.737884|    0.013036|           5|   -1.618382|  5.0000e+01|  5.0000e+01|  5.0000e+01|
|         383|  1.9974e+00|   -4.697990|    0.738046|    0.013165|           5|   -1.604562|  5.0000e+01|  5.0000e+01|  5.0000e+01|
|         384|  1.9978e+00|   -4.701035|    0.738173|    0.013304|           5|   -1.595377|  5.0000e+01|  5.0000e+01|  5.0000e+01|
|         385|  1.9998e+00|   -4.701510|    0.738274|    0.013451|           5|   -1.402839|  5.0000e+01|  5.0000e+01|  5.0000e+01|
|         386|  2.0003e+00|   -4.701161|    0.738354|    0.013606|           5|   -1.766132|  5.0000e+01|  5.0000e+01|  5.0000e+01|
|         387|  2.0006e+00|   -4.702117|    0.738401|    0.013767|           5|   -1.844674|  5.0000e+01|  5.0000e+01|  5.0000e+01|
|         388|  2.0020e+00|   -4.702230|    0.738439|    0.013935|           5|   -1.793457|  5.0000e+01|  5.0000e+01|  5.0000e+01|
|         389|  2.0025e+00|   -4.702334|    0.738444|    0.014108|           5|   -1.804225|  5.0000e+01|  5.0000e+01|  5.0000e+01|
|         390|  2.0027e+00|   -4.701639|    0.738418|    0.014284|           5|   -1.482865|  5.0000e+01|  5.0000e+01|  5.0000e+01|
|         391|  2.0030e+00|   -4.701680|    0.738367|    0.014463|           5|   -1.742808|  5.0000e+01|  5.0000e+01|  5.0000e+01|
|         392|  2.0038e+00|   -4.701979|    0.738304|    0.014645|           5|   -1.275797|  5.0000e+01|  5.0000e+01|  5.0000e+01|
|         393|  2.0043e+00|   -4.700628|    0.738183|    0.014828|           5|   -1.540145|  5.0000e+01|  5.0000e+01|  5.0000e+01|
|         394|  2.0051e+00|   -4.701320|    0.738027|    0.015012|           5|   -1.771724|  5.0000e+01|  5.0000e+01|  5.0000e+01|
|         395|  2.0061e+00|   -4.702035|    0.737840|    0.015196|           5|   -1.728062|  5.0000e+01|  5.0000e+01|  5.0000e+01|
|         396|  2.0066e+00|   -4.702692|    0.737612|    0.015379|           5|   -1.747580|  5.0000e+01|  5.0000e+01|  5.0000e+01|
|         397|  2.0068e+00|   -4.703285|    0.737357|    0.015560|           5|   -1.612276|  5.0000e+01|  5.0000e+01|  5.0000e+01|
|         398|  2.0075e+00|   -4.703780|    0.737065|    0.015738|           5|   -1.637430|  5.0000e+01|  5.0000e+01|  5.0000e+01|
|         399|  2.0078e+00|   -4.704412|    0.736742|    0.015913|           5|   -1.789518|  5.0000e+01|  5.0000e+01|  5.0000e+01|
|         400|  2.0084e+00|   -4.706030|    0.736384|    0.016083|           5|   -1.767269|  5.0000e+01|  5.0000e+01|  5.0000e+01|
|         401|  2.0089e+00|   -4.707455|    0.735997|    0.016248|           5|   -1.704046|  5.0000e+01|  5.0000e+01|  5.0000e+01|
|         402|  2.0097e+00|   -4.708698|    0.735583|    0.016406|           5|   -1.661527|  5.0000e+01|  5.0000e+01|  5.0000e+01|
|         403|  2.0099e+00|   -4.710454|    0.735151|    0.016576|           5|   -1.221137|  5.0000e+01|  5.0000e+01|  5.0000e+01|
|         404|  2.0111e+00|   -4.710570|    0.734681|    0.016705|           5|   -1.637093|  5.0000e+01|  5.0000e+01|  5.0000e+01|
|         405|  2.0115e+00|   -4.714427|    0.734195|    0.016839|           5|   -1.545560|  5.0000e+01|  5.0000e+01|  5.0000e+01|
|         406|  2.0118e+00|   -4.717195|    0.733699|    0.016967|           5|   -1.525595|  5.0000e+01|  5.0000e+01|  5.0000e+01|
|         407|  2.0120e+00|   -4.719071|    0.733136|    0.017084|           5|   -1.606347|  5.0000e+01|  5.0000e+01|  5.0000e+01|
|         408|  2.0122e+00|   -4.724166|    0.732573|    0.017191|           5|   -1.596560|  5.0000e+01|  5.0000e+01|  5.0000e+01|
|         409|  2.0126e+00|   -4.727628|    0.731986|    0.017289|           5|   -1.128709|  5.0000e+01|  5.0000e+01|  5.0000e+01|
|         410|  2.0130e+00|   -4.728900|    0.731410|    0.017374|           5|   -1.407342|  5.0000e+01|  5.0000e+01|  5.0000e+01|
|         411|  2.0133e+00|   -4.734704|    0.730806|    0.017448|           5|   -1.609457|  5.0000e+01|  5.0000e+01|  5.0000e+01|
|         412|  2.0134e+00|   -4.740198|    0.730189|    0.017511|           5|   -1.674062|  5.0000e+01|  5.0000e+01|  5.0000e+01|
|         413|  2.0134e+00|   -4.744747|    0.729560|    0.017561|           5|   -1.474996|  5.0000e+01|  5.0000e+01|  5.0000e+01|
|         414|  2.0138e+00|   -4.749496|    0.728922|    0.017598|           5|   -1.401164|  5.0000e+01|  5.0000e+01|  5.0000e+01|
|         415|  2.0142e+00|   -4.752727|    0.728276|    0.017623|           5|   -1.347146|  5.0000e+01|  5.0000e+01|  5.0000e+01|
|         416|  2.0144e+00|   -4.757644|    0.727635|    0.017635|           5|   -1.058493|  5.0000e+01|  5.0000e+01|  5.0000e+01|
|         417|  2.0147e+00|   -4.762407|    0.726987|    0.017633|           5|   -1.483155|  5.0000e+01|  5.0000e+01|  5.0000e+01|
|         418|  2.0154e+00|   -4.767227|    0.726340|    0.017618|           5|   -1.487750|  5.0000e+01|  5.0000e+01|  5.0000e+01|
|         419|  2.0155e+00|   -4.771396|    0.725695|    0.017590|           5|   -1.304963|  5.0000e+01|  5.0000e+01|  5.0000e+01|
|         420|  2.0156e+00|   -4.775881|    0.725052|    0.017548|           5|   -1.392681|  5.0000e+01|  5.0000e+01|  5.0000e+01|
|         421|  2.0150e+00|   -4.778150|    0.724419|    0.017494|           5|   -1.420002|  5.0000e+01|  5.0000e+01|  5.0000e+01|
|         422|  2.0155e+00|   -4.781940|    0.723798|    0.017426|           5|   -1.218085|  5.0000e+01|  5.0000e+01|  5.0000e+01|
|         423|  2.0156e+00|   -4.782286|    0.723186|    0.017347|           5|   -1.203131|  5.0000e+01|  5.0000e+01|  5.0000e+01|
|         424|  2.0156e+00|   -4.786566|    0.722591|    0.017255|           5|   -1.191735|  5.0000e+01|  5.0000e+01|  5.0000e+01|
|         425|  2.0157e+00|   -4.787581|    0.722016|    0.017152|           5|   -1.131841|  5.0000e+01|  5.0000e+01|  5.0000e+01|
|         426|  2.0163e+00|   -4.789612|    0.721452|    0.017037|           5|   -1.374142|  5.0000e+01|  5.0000e+01|  5.0000e+01|
|         427|  2.0170e+00|   -4.789156|    0.720919|    0.016912|           5|   -1.338048|  5.0000e+01|  5.0000e+01|  5.0000e+01|
|         428|  2.0173e+00|   -4.792416|    0.720400|    0.016776|           5|   -1.369250|  5.0000e+01|  5.0000e+01|  5.0000e+01|
|         429|  2.0180e+00|   -4.792223|    0.719914|    0.016631|           5|   -1.252845|  5.0000e+01|  5.0000e+01|  5.0000e+01|
|         430|  2.0183e+00|   -4.790330|    0.719453|    0.016477|           5|   -1.200925|  5.0000e+01|  5.0000e+01|  5.0000e+01|
|         431|  2.0193e+00|   -4.788841|    0.719022|    0.016314|           5|   -1.325997|  5.0000e+01|  5.0000e+01|  5.0000e+01|
|         432|  2.0191e+00|   -4.785551|    0.718620|    0.016145|           5|   -1.175168|  5.0000e+01|  5.0000e+01|  5.0000e+01|
|         433|  2.0191e+00|   -4.785449|    0.718250|    0.015969|           5|   -1.177004|  5.0000e+01|  5.0000e+01|  5.0000e+01|
|         434|  2.0194e+00|   -4.783198|    0.717914|    0.015787|           5|   -1.040373|  5.0000e+01|  5.0000e+01|  5.0000e+01|
|         435|  2.0194e+00|   -4.777027|    0.717611|    0.015599|           5|   -1.291879|  5.0000e+01|  5.0000e+01|  5.0000e+01|
|         436|  2.0194e+00|   -4.777171|    0.717357|    0.015409|           5|   -1.223011|  5.0000e+01|  5.0000e+01|  5.0000e+01|
|         437|  2.0194e+00|   -4.775260|    0.717114|    0.015210|           5|   -1.055742|  5.0000e+01|  5.0000e+01|  5.0000e+01|
|         438|  2.0193e+00|   -4.769052|    0.716913|    0.015012|           5|   -1.229186|  5.0000e+01|  5.0000e+01|  5.0000e+01|
|         439|  2.0194e+00|   -4.765264|    0.716750|    0.014810|           5|   -1.290176|  5.0000e+01|  5.0000e+01|  5.0000e+01|
|         440|  2.0195e+00|   -4.763478|    0.716626|    0.014608|           5|   -1.192117|  5.0000e+01|  5.0000e+01|  5.0000e+01|
|         441|  2.0193e+00|   -4.762031|    0.716535|    0.014408|           5|   -1.108728|  5.0000e+01|  5.0000e+01|  5.0000e+01|
|         442|  2.0192e+00|   -4.758434|    0.716484|    0.014207|           5|   -1.156177|  5.0000e+01|  5.0000e+01|  5.0000e+01|
|         443|  2.0190e+00|   -4.756674|    0.716470|    0.014008|           5|   -1.273917|  5.0000e+01|  5.0000e+01|  5.0000e+01|
|         444|  2.0188e+00|   -4.756307|    0.716493|    0.013813|           5|   -1.144561|  5.0000e+01|  5.0000e+01|  5.0000e+01|
|         445|  2.0188e+00|   -4.753511|    0.716557|    0.013620|           5|   -1.176290|  5.0000e+01|  5.0000e+01|  5.0000e+01|
|         446|  2.0188e+00|   -4.748018|    0.716648|    0.013436|           5|   -0.882947|  5.0000e+01|  5.0000e+01|  5.0000e+01|
|         447|  2.0190e+00|   -4.744483|    0.716791|    0.013252|           5|   -1.032109|  5.0000e+01|  5.0000e+01|  5.0000e+01|
|         448|  2.0192e+00|   -4.734642|    0.716946|    0.013074|           5|   -0.982467|  5.0000e+01|  5.0000e+01|  5.0000e+01|
|         449|  2.0198e+00|   -4.750679|    0.717124|    0.012919|           5|   -0.710766|  5.0000e+01|  5.0000e+01|  5.0000e+01|
|         450|  2.0203e+00|   -4.741691|    0.717354|    0.012758|           5|   -1.025514|  5.0000e+01|  5.0000e+01|  5.0000e+01|
|         451|  2.0218e+00|   -4.752309|    0.717608|    0.012603|           5|   -1.306318|  5.0000e+01|  5.0000e+01|  5.0000e+01|
|         452|  2.0222e+00|   -4.757389|    0.717892|    0.012458|           5|   -1.393480|  5.0000e+01|  5.0000e+01|  5.0000e+01|
|         453|  2.0225e+00|   -4.758173|    0.718211|    0.012322|           5|   -1.458355|  5.0000e+01|  5.0000e+01|  5.0000e+01|
|         454|  2.0230e+00|   -4.761181|    0.718552|    0.012196|           5|   -1.435585|  5.0000e+01|  5.0000e+01|  5.0000e+01|
|         455|  2.0232e+00|   -4.765731|    0.718919|    0.012082|           5|   -1.203802|  5.0000e+01|  5.0000e+01|  5.0000e+01|
|         456|  2.0234e+00|   -4.766396|    0.719307|    0.011979|           5|   -1.268107|  5.0000e+01|  5.0000e+01|  5.0000e+01|
|         457|  2.0235e+00|   -4.770224|    0.719714|    0.011888|           5|   -1.301936|  5.0000e+01|  5.0000e+01|  5.0000e+01|
|         458|  2.0237e+00|   -4.773318|    0.720137|    0.011810|           5|   -1.199786|  5.0000e+01|  5.0000e+01|  5.0000e+01|
|         459|  2.0238e+00|   -4.778445|    0.720568|    0.011743|           5|   -1.151775|  5.0000e+01|  5.0000e+01|  5.0000e+01|
|         460|  2.0240e+00|   -4.781345|    0.721016|    0.011691|           5|   -1.142214|  5.0000e+01|  5.0000e+01|  5.0000e+01|
|         461|  2.0250e+00|   -4.783676|    0.721466|    0.011650|           5|   -1.270664|  5.0000e+01|  5.0000e+01|  5.0000e+01|
|         462|  2.0252e+00|   -4.790491|    0.721922|    0.011622|           5|   -1.326411|  5.0000e+01|  5.0000e+01|  5.0000e+01|
|         463|  2.0253e+00|   -4.791314|    0.722383|    0.011607|           5|   -1.095164|  5.0000e+01|  5.0000e+01|  5.0000e+01|
|         464|  2.0255e+00|   -4.796001|    0.722845|    0.011606|           5|   -1.279022|  5.0000e+01|  5.0000e+01|  5.0000e+01|
|         465|  2.0255e+00|   -4.796401|    0.723303|    0.011617|           5|   -1.257864|  5.0000e+01|  5.0000e+01|  5.0000e+01|
|         466|  2.0257e+00|   -4.801698|    0.723753|    0.011642|           5|   -1.342004|  5.0000e+01|  5.0000e+01|  5.0000e+01|
|         467|  2.0260e+00|   -4.807255|    0.724195|    0.011679|           5|   -1.295940|  5.0000e+01|  5.0000e+01|  5.0000e+01|
|         468|  2.0263e+00|   -4.809481|    0.724628|    0.011729|           5|   -1.311678|  5.0000e+01|  5.0000e+01|  5.0000e+01|
|         469|  2.0268e+00|   -4.810850|    0.725049|    0.011791|           5|   -1.183012|  5.0000e+01|  5.0000e+01|  5.0000e+01|
|         470|  2.0269e+00|   -4.812798|    0.725395|    0.011863|           5|   -0.876706|  5.0000e+01|  5.0000e+01|  5.0000e+01|
|         471|  2.0268e+00|   -4.795631|    0.725785|    0.011948|           5|   -1.181155|  5.0000e+01|  5.0000e+01|  5.0000e+01|
|         472|  2.0270e+00|   -4.805287|    0.726191|    0.012044|           5|   -1.424448|  5.0000e+01|  5.0000e+01|  5.0000e+01|
|         473|  2.0269e+00|   -4.811137|    0.726545|    0.012151|           5|   -1.532161|  5.0000e+01|  5.0000e+01|  5.0000e+01|
|         474|  2.0271e+00|   -4.810328|    0.726872|    0.012268|           5|   -1.344018|  5.0000e+01|  5.0000e+01|  5.0000e+01|
|         475|  2.0270e+00|   -4.805175|    0.727170|    0.012394|           5|   -1.171839|  5.0000e+01|  5.0000e+01|  5.0000e+01|
|         476|  2.0276e+00|   -4.802922|    0.727449|    0.012530|           5|   -1.501656|  5.0000e+01|  5.0000e+01|  5.0000e+01|
|         477|  2.0276e+00|   -4.801066|    0.727698|    0.012675|           5|   -1.467067|  5.0000e+01|  5.0000e+01|  5.0000e+01|
|         478|  2.0280e+00|   -4.797569|    0.727916|    0.012827|           5|   -1.622220|  5.0000e+01|  5.0000e+01|  5.0000e+01|
|         479|  2.0284e+00|   -4.793787|    0.728096|    0.012984|           5|   -1.262620|  5.0000e+01|  5.0000e+01|  5.0000e+01|
|         480|  2.0286e+00|   -4.788349|    0.728263|    0.013149|           5|   -1.100501|  5.0000e+01|  5.0000e+01|  5.0000e+01|
|         481|  2.0290e+00|   -4.783204|    0.728383|    0.013319|           5|   -1.283544|  5.0000e+01|  5.0000e+01|  5.0000e+01|
|         482|  2.0298e+00|   -4.778694|    0.728471|    0.013492|           5|   -1.422127|  5.0000e+01|  5.0000e+01|  5.0000e+01|
|         483|  2.0299e+00|   -4.775592|    0.728525|    0.013669|           5|   -1.358659|  5.0000e+01|  5.0000e+01|  5.0000e+01|
|         484|  2.0299e+00|   -4.771200|    0.728541|    0.013848|           5|   -1.119288|  5.0000e+01|  5.0000e+01|  5.0000e+01|
|         485|  2.0302e+00|   -4.765291|    0.728523|    0.014028|           5|   -0.941440|  5.0000e+01|  5.0000e+01|  5.0000e+01|
|         486|  2.0305e+00|   -4.737626|    0.728465|    0.014210|           5|   -1.327693|  5.0000e+01|  5.0000e+01|  5.0000e+01|
|         487|  2.0306e+00|   -4.758681|    0.728371|    0.014393|           5|   -1.504268|  5.0000e+01|  5.0000e+01|  5.0000e+01|
|         488|  2.0307e+00|   -4.758005|    0.728240|    0.014573|           5|   -1.142526|  5.0000e+01|  5.0000e+01|  5.0000e+01|
|         489|  2.0307e+00|   -4.754848|    0.728070|    0.014753|           5|   -1.381399|  5.0000e+01|  5.0000e+01|  5.0000e+01|
|         490|  2.0308e+00|   -4.752428|    0.727860|    0.014930|           5|   -1.304574|  5.0000e+01|  5.0000e+01|  5.0000e+01|
|         491|  2.0309e+00|   -4.752623|    0.727616|    0.015104|           5|   -1.365329|  5.0000e+01|  5.0000e+01|  5.0000e+01|
|         492|  2.0310e+00|   -4.753616|    0.727341|    0.015274|           5|   -1.405018|  5.0000e+01|  5.0000e+01|  5.0000e+01|
|         493|  2.0313e+00|   -4.754307|    0.727015|    0.015437|           5|   -1.553414|  5.0000e+01|  5.0000e+01|  5.0000e+01|
|         494|  2.0317e+00|   -4.755892|    0.726665|    0.015595|           5|   -1.547260|  5.0000e+01|  5.0000e+01|  5.0000e+01|
|         495|  2.0319e+00|   -4.757618|    0.726281|    0.015747|           5|   -1.606418|  5.0000e+01|  5.0000e+01|  5.0000e+01|
|         496|  2.0322e+00|   -4.760944|    0.725868|    0.015891|           5|   -1.604606|  5.0000e+01|  5.0000e+01|  5.0000e+01|
|         497|  2.0332e+00|   -4.762607|    0.725427|    0.016027|           5|   -1.573624|  5.0000e+01|  5.0000e+01|  5.0000e+01|
|         498|  2.0336e+00|   -4.765988|    0.724960|    0.016153|           5|   -1.273635|  5.0000e+01|  5.0000e+01|  5.0000e+01|
|         499|  2.0341e+00|   -4.770392|    0.724468|    0.016270|           5|   -1.377324|  5.0000e+01|  5.0000e+01|  5.0000e+01|
|         500|  2.0335e+00|   -4.775146|    0.723954|    0.016377|           5|   -1.271815|  5.0000e+01|  5.0000e+01|  5.0000e+01|
|         501|  2.0335e+00|   -4.779698|    0.723418|    0.016473|           5|   -1.454680|  5.0000e+01|  5.0000e+01|  5.0000e+01|
|         502|  2.0335e+00|   -4.785809|    0.722861|    0.016559|           5|   -1.385480|  5.0000e+01|  5.0000e+01|  5.0000e+01|
|         503|  2.0337e+00|   -4.789364|    0.722287|    0.016633|           5|   -1.384520|  5.0000e+01|  5.0000e+01|  5.0000e+01|
|         504|  2.0339e+00|   -4.798070|    0.721700|    0.016695|           5|   -1.321045|  5.0000e+01|  5.0000e+01|  5.0000e+01|
|         505|  2.0340e+00|   -4.805111|    0.721101|    0.016746|           5|   -1.371315|  5.0000e+01|  5.0000e+01|  5.0000e+01|
|         506|  2.0349e+00|   -4.807483|    0.720496|    0.016784|           5|   -1.408550|  5.0000e+01|  5.0000e+01|  5.0000e+01|
[...]
|        1678|  2.0562e+00|   -7.112504|    0.707333|    0.013690|           5|   -0.493478|  5.0000e+01|  5.0000e+01|  5.0000e+01|
|        1679|  2.0562e+00|   -7.103688|    0.707333|    0.013690|           5|   -0.480822|  5.0000e+01|  5.0000e+01|  5.0000e+01|
|        1680|  2.0562e+00|   -7.102501|    0.707332|    0.013691|           5|   -0.418645|  5.0000e+01|  5.0000e+01|  5.0000e+01|
|        1681|  2.0561e+00|   -7.097288|    0.707332|    0.013691|           5|   -0.446501|  5.0000e+01|  5.0000e+01|  5.0000e+01|
|        1682|  2.0561e+00|   -7.083219|    0.707332|    0.013691|           5|   -0.454346|  5.0000e+01|  5.0000e+01|  5.0000e+01|
|        1683|  2.0561e+00|   -7.080199|    0.707331|    0.013692|           5|   -0.568365|  5.0000e+01|  5.0000e+01|  5.0000e+01|
|        1684|  2.0561e+00|   -7.100454|    0.707331|    0.013692|           5|   -0.544526|  5.0000e+01|  5.0000e+01|  5.0000e+01|
|        1685|  2.0561e+00|   -7.103935|    0.707330|    0.013693|           5|   -0.579954|  5.0000e+01|  5.0000e+01|  5.0000e+01|
|        1686|  2.0561e+00|   -7.106799|    0.707329|    0.013693|           5|   -0.524828|  5.0000e+01|  5.0000e+01|  5.0000e+01|
|        1687|  2.0561e+00|   -7.098316|    0.707329|    0.013694|           5|   -0.497419|  5.0000e+01|  5.0000e+01|  5.0000e+01|
|        1688|  2.0561e+00|   -7.088302|    0.707328|    0.013694|           5|   -0.519179|  5.0000e+01|  5.0000e+01|  5.0000e+01|
|        1689|  2.0561e+00|   -7.096148|    0.707327|    0.013695|           5|   -0.477388|  5.0000e+01|  5.0000e+01|  5.0000e+01|
|        1690|  2.0562e+00|   -7.093388|    0.707325|    0.013695|           5|   -0.485069|  5.0000e+01|  5.0000e+01|  5.0000e+01|
|        1691|  2.0561e+00|   -7.096744|    0.707324|    0.013696|           5|   -0.502644|  5.0000e+01|  5.0000e+01|  5.0000e+01|
|        1692|  2.0560e+00|   -7.099887|    0.707323|    0.013696|           5|   -0.529106|  5.0000e+01|  5.0000e+01|  5.0000e+01|
|        1693|  2.0560e+00|   -7.093775|    0.707321|    0.013697|           5|   -0.589051|  5.0000e+01|  5.0000e+01|  5.0000e+01|
|        1694|  2.0560e+00|   -7.110530|    0.707320|    0.013697|           5|   -0.539616|  5.0000e+01|  5.0000e+01|  5.0000e+01|
|        1695|  2.0560e+00|   -7.116747|    0.707318|    0.013698|           5|   -0.533287|  5.0000e+01|  5.0000e+01|  5.0000e+01|
|        1696|  2.0560e+00|   -7.116403|    0.707316|    0.013698|           5|   -0.564238|  5.0000e+01|  5.0000e+01|  5.0000e+01|
|        1697|  2.0559e+00|   -7.119262|    0.707315|    0.013699|           5|   -0.587347|  5.0000e+01|  5.0000e+01|  5.0000e+01|
|        1698|  2.0559e+00|   -7.129510|    0.707313|    0.013699|           5|   -0.499588|  5.0000e+01|  5.0000e+01|  5.0000e+01|
|        1699|  2.0559e+00|   -7.126704|    0.707311|    0.013700|           5|   -0.508040|  5.0000e+01|  5.0000e+01|  5.0000e+01|
|        1700|  2.0559e+00|   -7.130149|    0.707309|    0.013700|           5|   -0.461512|  5.0000e+01|  5.0000e+01|  5.0000e+01|
|        1701|  2.0560e+00|   -7.133857|    0.707307|    0.013700|           5|   -0.565005|  5.0000e+01|  5.0000e+01|  5.0000e+01|
|        1702|  2.0561e+00|   -7.139135|    0.707305|    0.013701|           5|   -0.531896|  5.0000e+01|  5.0000e+01|  5.0000e+01|
|        1703|  2.0561e+00|   -7.144253|    0.707303|    0.013701|           5|   -0.524248|  5.0000e+01|  5.0000e+01|  5.0000e+01|
|        1704|  2.0562e+00|   -7.148615|    0.707300|    0.013702|           5|   -0.533039|  5.0000e+01|  5.0000e+01|  5.0000e+01|
|        1705|  2.0563e+00|   -7.155487|    0.707298|    0.013702|           5|   -0.519745|  5.0000e+01|  5.0000e+01|  5.0000e+01|
|        1706|  2.0563e+00|   -7.158642|    0.707296|    0.013702|           5|   -0.517780|  5.0000e+01|  5.0000e+01|  5.0000e+01|
|        1707|  2.0563e+00|   -7.163814|    0.707294|    0.013702|           5|   -0.493968|  5.0000e+01|  5.0000e+01|  5.0000e+01|
|        1708|  2.0563e+00|   -7.164032|    0.707291|    0.013703|           5|   -0.508651|  5.0000e+01|  5.0000e+01|  5.0000e+01|
|        1709|  2.0563e+00|   -7.172093|    0.707289|    0.013703|           5|   -0.510726|  5.0000e+01|  5.0000e+01|  5.0000e+01|
|        1710|  2.0564e+00|   -7.178522|    0.707287|    0.013703|           5|   -0.566925|  5.0000e+01|  5.0000e+01|  5.0000e+01|
|        1711|  2.0565e+00|   -7.190942|    0.707284|    0.013703|           5|   -0.561255|  5.0000e+01|  5.0000e+01|  5.0000e+01|
|        1712|  2.0565e+00|   -7.196308|    0.707282|    0.013703|           5|   -0.571477|  5.0000e+01|  5.0000e+01|  5.0000e+01|
|        1713|  2.0566e+00|   -7.202793|    0.707280|    0.013703|           5|   -0.574842|  5.0000e+01|  5.0000e+01|  5.0000e+01|
|        1714|  2.0565e+00|   -7.206092|    0.707278|    0.013703|           5|   -0.552974|  5.0000e+01|  5.0000e+01|  5.0000e+01|
|        1715|  2.0565e+00|   -7.202047|    0.707276|    0.013703|           5|   -0.548627|  5.0000e+01|  5.0000e+01|  5.0000e+01|
|        1716|  2.0564e+00|   -7.210264|    0.707274|    0.013703|           5|   -0.516944|  5.0000e+01|  5.0000e+01|  5.0000e+01|
|        1717|  2.0564e+00|   -7.209839|    0.707271|    0.013703|           5|   -0.490771|  5.0000e+01|  5.0000e+01|  5.0000e+01|
|        1718|  2.0564e+00|   -7.206692|    0.707269|    0.013703|           5|   -0.484859|  5.0000e+01|  5.0000e+01|  5.0000e+01|
|        1719|  2.0564e+00|   -7.206518|    0.707268|    0.013703|           5|   -0.478260|  5.0000e+01|  5.0000e+01|  5.0000e+01|
|        1720|  2.0564e+00|   -7.203649|    0.707266|    0.013703|           5|   -0.517035|  5.0000e+01|  5.0000e+01|  5.0000e+01|
|        1721|  2.0564e+00|   -7.208996|    0.707264|    0.013703|           5|   -0.494979|  5.0000e+01|  5.0000e+01|  5.0000e+01|
|        1722|  2.0564e+00|   -7.208215|    0.707262|    0.013702|           5|   -0.507685|  5.0000e+01|  5.0000e+01|  5.0000e+01|
|        1723|  2.0564e+00|   -7.209252|    0.707261|    0.013702|           5|   -0.479131|  5.0000e+01|  5.0000e+01|  5.0000e+01|
|        1724|  2.0565e+00|   -7.205334|    0.707259|    0.013702|           5|   -0.460559|  5.0000e+01|  5.0000e+01|  5.0000e+01|
|        1725|  2.0565e+00|   -7.201693|    0.707258|    0.013702|           5|   -0.503945|  5.0000e+01|  5.0000e+01|  5.0000e+01|
|        1726|  2.0565e+00|   -7.203929|    0.707256|    0.013701|           5|   -0.516294|  5.0000e+01|  5.0000e+01|  5.0000e+01|
|        1727|  2.0567e+00|   -7.205440|    0.707255|    0.013701|           5|   -0.450711|  5.0000e+01|  5.0000e+01|  5.0000e+01|
|        1728|  2.0567e+00|   -7.191609|    0.707254|    0.013701|           5|   -0.557653|  5.0000e+01|  5.0000e+01|  5.0000e+01|
|        1729|  2.0566e+00|   -7.203935|    0.707252|    0.013700|           5|   -0.594468|  5.0000e+01|  5.0000e+01|  5.0000e+01|
|        1730|  2.0568e+00|   -7.209144|    0.707251|    0.013700|           5|   -0.595792|  5.0000e+01|  5.0000e+01|  5.0000e+01|
|        1731|  2.0568e+00|   -7.209699|    0.707250|    0.013700|           5|   -0.577586|  5.0000e+01|  5.0000e+01|  5.0000e+01|
|        1732|  2.0568e+00|   -7.205795|    0.707250|    0.013699|           5|   -0.622609|  5.0000e+01|  5.0000e+01|  5.0000e+01|
|        1733|  2.0568e+00|   -7.201251|    0.707249|    0.013699|           5|   -0.589194|  5.0000e+01|  5.0000e+01|  5.0000e+01|
|        1734|  2.0566e+00|   -7.187041|    0.707248|    0.013698|           5|   -0.555744|  5.0000e+01|  5.0000e+01|  5.0000e+01|
|        1735|  2.0567e+00|   -7.193595|    0.707248|    0.013698|           5|   -0.511368|  5.0000e+01|  5.0000e+01|  5.0000e+01|
|        1736|  2.0567e+00|   -7.189680|    0.707247|    0.013698|           5|   -0.504507|  5.0000e+01|  5.0000e+01|  5.0000e+01|
|        1737|  2.0567e+00|   -7.189621|    0.707247|    0.013697|           5|   -0.501570|  5.0000e+01|  5.0000e+01|  5.0000e+01|
|        1738|  2.0568e+00|   -7.187726|    0.707246|    0.013697|           5|   -0.447994|  5.0000e+01|  5.0000e+01|  5.0000e+01|
|        1739|  2.0569e+00|   -7.185789|    0.707246|    0.013696|           5|   -0.421986|  5.0000e+01|  5.0000e+01|  5.0000e+01|
|        1740|  2.0571e+00|   -7.191232|    0.707246|    0.013696|           5|   -0.463874|  5.0000e+01|  5.0000e+01|  5.0000e+01|
|        1741|  2.0571e+00|   -7.187647|    0.707246|    0.013696|           5|   -0.427029|  5.0000e+01|  5.0000e+01|  5.0000e+01|
|        1742|  2.0572e+00|   -7.178749|    0.707245|    0.013695|           5|   -0.513621|  5.0000e+01|  5.0000e+01|  5.0000e+01|
|        1743|  2.0572e+00|   -7.198837|    0.707245|    0.013695|           5|   -0.554715|  5.0000e+01|  5.0000e+01|  5.0000e+01|
|        1744|  2.0573e+00|   -7.208297|    0.707245|    0.013695|           5|   -0.532868|  5.0000e+01|  5.0000e+01|  5.0000e+01|
|        1745|  2.0574e+00|   -7.210802|    0.707245|    0.013694|           5|   -0.528403|  5.0000e+01|  5.0000e+01|  5.0000e+01|
|        1746|  2.0575e+00|   -7.210348|    0.707246|    0.013694|           5|   -0.473325|  5.0000e+01|  5.0000e+01|  5.0000e+01|
|        1747|  2.0574e+00|   -7.201720|    0.707246|    0.013694|           5|   -0.374682|  5.0000e+01|  5.0000e+01|  5.0000e+01|
|        1748|  2.0576e+00|   -7.176061|    0.707246|    0.013694|           5|   -0.269912|  5.0000e+01|  5.0000e+01|  5.0000e+01|
|        1749|  2.0577e+00|   -7.119782|    0.707246|    0.013693|           5|   -0.336479|  5.0000e+01|  5.0000e+01|  5.0000e+01|
|        1750|  2.0577e+00|   -7.145397|    0.707246|    0.013693|           5|   -0.390628|  5.0000e+01|  5.0000e+01|  5.0000e+01|
|        1751|  2.0577e+00|   -7.157982|    0.707247|    0.013693|           5|   -0.441864|  5.0000e+01|  5.0000e+01|  5.0000e+01|
|        1752|  2.0578e+00|   -7.162974|    0.707247|    0.013693|           5|   -0.275018|  5.0000e+01|  5.0000e+01|  5.0000e+01|
|        1753|  2.0578e+00|   -7.116750|    0.707247|    0.013693|           5|   -0.127331|  5.0000e+01|  5.0000e+01|  5.0000e+01|
|        1754|  2.0578e+00|   -7.052378|    0.707247|    0.013693|           5|   -0.158339|  5.0000e+01|  5.0000e+01|  5.0000e+01|
|        1755|  2.0577e+00|   -7.132724|    0.707247|    0.013693|           5|   -0.368204|  5.0000e+01|  5.0000e+01|  5.0000e+01|
|        1756|  2.0577e+00|   -7.125779|    0.707247|    0.013692|           5|   -0.138203|  5.0000e+01|  5.0000e+01|  5.0000e+01|
|        1757|  2.0575e+00|   -7.044581|    0.707247|    0.013692|           5|   -0.175573|  5.0000e+01|  5.0000e+01|  5.0000e+01|
|        1758|  2.0575e+00|   -7.093082|    0.707248|    0.013692|           5|   -0.331449|  5.0000e+01|  5.0000e+01|  5.0000e+01|
|        1759|  2.0576e+00|   -7.070541|    0.707248|    0.013692|           5|   -0.131542|  5.0000e+01|  5.0000e+01|  5.0000e+01|
|        1760|  2.0574e+00|   -7.067297|    0.707248|    0.013692|           5|   -0.288121|  5.0000e+01|  5.0000e+01|  5.0000e+01|
|        1761|  2.0574e+00|   -7.000768|    0.707248|    0.013692|           5|   -0.324536|  5.0000e+01|  5.0000e+01|  5.0000e+01|
|        1762|  2.0574e+00|   -7.050562|    0.707248|    0.013692|           5|   -0.121634|  5.0000e+01|  5.0000e+01|  5.0000e+01|
|        1763|  2.0574e+00|   -7.060672|    0.707248|    0.013692|           5|   -0.109280|  5.0000e+01|  5.0000e+01|  5.0000e+01|
|        1764|  2.0577e+00|   -7.059997|    0.707248|    0.013692|           5|   -0.110931|  5.0000e+01|  5.0000e+01|  5.0000e+01|
|        1765|  2.0577e+00|   -7.036816|    0.707248|    0.013692|           5|   -0.112323|  5.0000e+01|  5.0000e+01|  5.0000e+01|
|        1766|  2.0576e+00|   -7.013277|    0.707248|    0.013692|           5|   -0.176657|  5.0000e+01|  5.0000e+01|  5.0000e+01|
|        1767|  2.0576e+00|   -6.996692|    0.707248|    0.013692|           5|   -0.269839|  5.0000e+01|  5.0000e+01|  5.0000e+01|
|        1768|  2.0575e+00|   -6.972008|    0.707248|    0.013692|           5|   -0.130381|  5.0000e+01|  5.0000e+01|  5.0000e+01|
|        1769|  2.0575e+00|   -6.978500|    0.707248|    0.013692|           5|   -0.132700|  5.0000e+01|  5.0000e+01|  5.0000e+01|
|        1770|  2.0574e+00|   -7.007287|    0.707248|    0.013692|           5|   -0.137203|  5.0000e+01|  5.0000e+01|  5.0000e+01|
|        1771|  2.0574e+00|   -6.972103|    0.707248|    0.013692|           5|   -0.794937|  5.0000e+01|  5.0000e+01|  5.0000e+01|
|        1772|  2.0575e+00|   -7.203684|    0.707249|    0.013692|           5|   -0.516901|  5.0000e+01|  5.0000e+01|  5.0000e+01|
|        1773|  2.0575e+00|   -7.223448|    0.707249|    0.013692|           5|   -0.502920|  5.0000e+01|  5.0000e+01|  5.0000e+01|
|        1774|  2.0574e+00|   -7.226368|    0.707249|    0.013692|           5|   -0.478640|  5.0000e+01|  5.0000e+01|  5.0000e+01|
|        1775|  2.0574e+00|   -7.226752|    0.707249|    0.013692|           5|   -0.461307|  5.0000e+01|  5.0000e+01|  5.0000e+01|
|        1776|  2.0574e+00|   -7.224766|    0.707249|    0.013692|           5|   -0.453380|  5.0000e+01|  5.0000e+01|  5.0000e+01|
|        1777|  2.0574e+00|   -7.222703|    0.707249|    0.013692|           5|   -0.521518|  5.0000e+01|  5.0000e+01|  5.0000e+01|
|        1778|  2.0574e+00|   -7.225502|    0.707249|    0.013692|           5|   -0.509560|  5.0000e+01|  5.0000e+01|  5.0000e+01|
|        1779|  2.0575e+00|   -7.227777|    0.707249|    0.013692|           5|   -0.509507|  5.0000e+01|  5.0000e+01|  5.0000e+01|
|        1780|  2.0574e+00|   -7.225219|    0.707249|    0.013692|           5|   -0.521447|  5.0000e+01|  5.0000e+01|  5.0000e+01|
|        1781|  2.0574e+00|   -7.223864|    0.707249|    0.013692|           5|   -0.468385|  5.0000e+01|  5.0000e+01|  5.0000e+01|
|        1782|  2.0573e+00|   -7.215087|    0.707249|    0.013693|           5|   -0.489826|  5.0000e+01|  5.0000e+01|  5.0000e+01|
|        1783|  2.0573e+00|   -7.219481|    0.707248|    0.013693|           5|   -0.452208|  5.0000e+01|  5.0000e+01|  5.0000e+01|
|        1784|  2.0573e+00|   -7.215647|    0.707248|    0.013693|           5|   -0.434262|  5.0000e+01|  5.0000e+01|  5.0000e+01|
|        1785|  2.0573e+00|   -7.210005|    0.707247|    0.013693|           5|   -0.464804|  5.0000e+01|  5.0000e+01|  5.0000e+01|
|        1786|  2.0573e+00|   -7.213732|    0.707247|    0.013693|           5|   -0.494159|  5.0000e+01|  5.0000e+01|  5.0000e+01|
|        1787|  2.0573e+00|   -7.212232|    0.707246|    0.013694|           5|   -0.491831|  5.0000e+01|  5.0000e+01|  5.0000e+01|
|        1788|  2.0573e+00|   -7.215565|    0.707246|    0.013694|           5|   -0.539261|  5.0000e+01|  5.0000e+01|  5.0000e+01|
|        1789|  2.0573e+00|   -7.222881|    0.707245|    0.013694|           5|   -0.526452|  5.0000e+01|  5.0000e+01|  5.0000e+01|
|        1790|  2.0573e+00|   -7.225780|    0.707244|    0.013694|           5|   -0.560071|  5.0000e+01|  5.0000e+01|  5.0000e+01|
|        1791|  2.0572e+00|   -7.230781|    0.707244|    0.013694|           5|   -0.536021|  5.0000e+01|  5.0000e+01|  5.0000e+01|
|        1792|  2.0572e+00|   -7.233472|    0.707243|    0.013695|           5|   -0.511994|  5.0000e+01|  5.0000e+01|  5.0000e+01|
|        1793|  2.0573e+00|   -7.233308|    0.707242|    0.013695|           5|   -0.516982|  5.0000e+01|  5.0000e+01|  5.0000e+01|
|        1794|  2.0573e+00|   -7.236510|    0.707241|    0.013695|           5|   -0.491155|  5.0000e+01|  5.0000e+01|  5.0000e+01|
|        1795|  2.0574e+00|   -7.235646|    0.707240|    0.013695|           5|   -0.490009|  5.0000e+01|  5.0000e+01|  5.0000e+01|
|        1796|  2.0575e+00|   -7.237951|    0.707239|    0.013696|           5|   -0.453448|  5.0000e+01|  5.0000e+01|  5.0000e+01|
|        1797|  2.0575e+00|   -7.235274|    0.707238|    0.013696|           5|   -0.506474|  5.0000e+01|  5.0000e+01|  5.0000e+01|
|        1798|  2.0575e+00|   -7.246611|    0.707237|    0.013696|           5|   -0.479390|  5.0000e+01|  5.0000e+01|  5.0000e+01|
|        1799|  2.0574e+00|   -7.247515|    0.707236|    0.013697|           5|   -0.498972|  5.0000e+01|  5.0000e+01|  5.0000e+01|
|        1800|  2.0574e+00|   -7.255930|    0.707234|    0.013697|           5|   -0.481184|  5.0000e+01|  5.0000e+01|  5.0000e+01|
|        1801|  2.0572e+00|   -7.257908|    0.707233|    0.013697|           5|   -0.461361|  5.0000e+01|  5.0000e+01|  5.0000e+01|
|        1802|  2.0572e+00|   -7.250218|    0.707232|    0.013697|           5|   -0.498887|  5.0000e+01|  5.0000e+01|  5.0000e+01|
|        1803|  2.0576e+00|   -7.267996|    0.707231|    0.013697|           5|   -0.476013|  5.0000e+01|  5.0000e+01|  5.0000e+01|
|        1804|  2.0575e+00|   -7.273007|    0.707229|    0.013698|           5|   -0.438483|  5.0000e+01|  5.0000e+01|  5.0000e+01|
|        1805|  2.0575e+00|   -7.273892|    0.707228|    0.013698|           5|   -0.438344|  5.0000e+01|  5.0000e+01|  5.0000e+01|
|        1806|  2.0575e+00|   -7.278804|    0.707227|    0.013698|           5|   -0.445302|  5.0000e+01|  5.0000e+01|  5.0000e+01|
|        1807|  2.0575e+00|   -7.283425|    0.707225|    0.013698|           5|   -0.451943|  5.0000e+01|  5.0000e+01|  5.0000e+01|
|        1808|  2.0575e+00|   -7.286366|    0.707224|    0.013698|           5|   -0.481308|  5.0000e+01|  5.0000e+01|  5.0000e+01|
|        1809|  2.0575e+00|   -7.300083|    0.707222|    0.013699|           5|   -0.471603|  5.0000e+01|  5.0000e+01|  5.0000e+01|
|        1810|  2.0576e+00|   -7.306787|    0.707221|    0.013699|           5|   -0.457903|  5.0000e+01|  5.0000e+01|  5.0000e+01|
|        1811|  2.0579e+00|   -7.312446|    0.707219|    0.013699|           5|   -0.458508|  5.0000e+01|  5.0000e+01|  5.0000e+01|
|        1812|  2.0579e+00|   -7.318063|    0.707218|    0.013699|           5|   -0.432281|  5.0000e+01|  5.0000e+01|  5.0000e+01|
|        1813|  2.0579e+00|   -7.321170|    0.707217|    0.013699|           5|   -0.411515|  5.0000e+01|  5.0000e+01|  5.0000e+01|
|        1814|  2.0580e+00|   -7.324502|    0.707215|    0.013699|           5|   -0.353217|  5.0000e+01|  5.0000e+01|  5.0000e+01|

----------------------------- Solver Exit -------------------------------
All convergence criteria satisfied.
+-----------------------------------------------------------------------+
|      Convergence Field     |     Value    |   Criterion  |  Converged |
+-----------------------------------------------------------------------+
|                  Cauchy[CL]|   9.90388e-07|       < 1e-06|         Yes|
+-----------------------------------------------------------------------+
-------------------------------------------------------------------------
+-----------------------------------------------------------------------+
|        File Writing Summary       |              Filename             |
+-----------------------------------------------------------------------+
|SU2 binary restart                 |restart_flow.dat                   |

Writing the forces breakdown file (forces_breakdown.dat).
|Paraview                           |flow.vtu                           |

Writing the forces breakdown file (forces_breakdown.dat).
|Paraview surface                   |surface_flow.vtu                   |

Writing the forces breakdown file (forces_breakdown.dat).
+-----------------------------------------------------------------------+

--------------------------- Finalizing Solver ---------------------------
Deleted CNumerics container.
Deleted CIntegration container.
Deleted CSolver container.
Deleted CIteration container.
Deleted CInterface container.
Deleted CGeometry container.
Deleted CFreeFormDefBox class.
Deleted CSurfaceMovement class.
Deleted CVolumetricMovement class.
Deleted CConfig container.
Deleted nInst container.
Deleted COutput class.
-------------------------------------------------------------------------

------------------------- Exit Success (SU2_CFD) ------------------------

