
-------------------------------------------------------------------------
|    ___ _   _ ___                                                      |
|   / __| | | |_  )   Release 8.0.0 "Harrier"                           |
|   \__ \ |_| |/ /                                                      |
|   |___/\___//___|   Suite (Computational Fluid Dynamics Code)         |
|                                                                       |
-------------------------------------------------------------------------
| SU2 Project Website: https://su2code.github.io                        |
|                                                                       |
| The SU2 Project is maintained by the SU2 Foundation                   |
| (http://su2foundation.org)                                            |
-------------------------------------------------------------------------
| Copyright 2012-2023, SU2 Contributors                                 |
|                                                                       |
| SU2 is free software; you can redistribute it and/or                  |
| modify it under the terms of the GNU Lesser General Public            |
| License as published by the Free Software Foundation; either          |
| version 2.1 of the License, or (at your option) any later version.    |
|                                                                       |
| SU2 is distributed in the hope that it will be useful,                |
| but WITHOUT ANY WARRANTY; without even the implied warranty of        |
| MERCHANTABILITY or FITNESS FOR A PARTICULAR PURPOSE. See the GNU      |
| Lesser General Public License for more details.                       |
|                                                                       |
| You should have received a copy of the GNU Lesser General Public      |
| License along with SU2. If not, see <http://www.gnu.org/licenses/>.   |
-------------------------------------------------------------------------

Parsing config file for zone 0

----------------- Physical Case Definition ( Zone 0 ) -------------------
Compressible RANS equations.
Turbulence model: Spalart-Allmaras-noft2
Hybrid RANS/LES: No Hybrid RANS/LES
Mach number: 0.734.
Angle of attack (AoA): 2.31 deg, and angle of sideslip (AoS): 0 deg.
Reynolds number: 6.5e+06. Reference length 1.
Fixed CL mode, target value: 0.824.
Reading and writing binary SU2 native restart files.
Read flow solution from: solution_flow.dat.
Dimensional simulation.
The reference area is 1 m^2.
The semi-span will be computed using the max y(3D) value.
The reference length is 1 m.
Reference origin for moment evaluation is (0.25, 0, 0).
Surface(s) where the force coefficients are evaluated: AIRFOIL.

Surface(s) plotted in the output file: AIRFOIL.
Surface(s) affected by the design variables: AIRFOIL.
Input mesh file name: mesh_RAE2822_turb_deform.su2

--------------- Space Numerical Integration ( Zone 0 ) ------------------
Jameson-Schmidt-Turkel scheme (2nd order in space) for the flow inviscid terms.
JST viscous coefficients (2nd & 4th): 0.5, 0.02.
The method includes a grid stretching correction (p = 0.3).
Scalar upwind solver for the turbulence model.
First order integration in space.
Average of gradients with correction (viscous flow terms).
Average of gradients with correction (viscous turbulence terms).
Gradient for viscous and source terms: inverse-distance weighted Least-Squares.

--------------- Time Numerical Integration  ( Zone 0 ) ------------------
Local time stepping (steady state simulation).
Euler implicit method for the flow equations.
FGMRES is used for solving the linear system.
Using a ILU(0) preconditioning.
Convergence criteria of the linear solver: 1e-06.
Max number of linear iterations: 10.
No CFL adaptation.
Courant-Friedrichs-Lewy number:       10
Euler implicit time integration for the turbulence model.

------------------ Convergence Criteria  ( Zone 0 ) ---------------------
Maximum number of solver subiterations: 5500.
Begin convergence monitoring at iteration 10.
Residual minimum value: 1e-12.
Cauchy series min. value: 1e-06.
Number of Cauchy elements: 100.
Begin windowed time average at iteration 0.

-------------------- Output Information ( Zone 0 ) ----------------------
File writing frequency: 
+------------------------------------+
|                     File| Frequency|
+------------------------------------+
|                  RESTART|     10000|
|                 PARAVIEW|     10000|
|         SURFACE_PARAVIEW|     10000|
|              SURFACE_CSV|     10000|
+------------------------------------+
Writing the convergence history file every 1 inner iterations.
Writing the screen convergence history every 1 inner iterations.
The tabular file format is CSV (.csv).
Convergence history file name: history_direct.
Forces breakdown file name: forces_breakdown.dat.
Surface file name: surface_flow.
Volume file name: flow.
Restart file name: restart_flow.dat.

------------- Config File Boundary Information ( Zone 0 ) ---------------
+-----------------------------------------------------------------------+
|                        Marker Type|                        Marker Name|
+-----------------------------------------------------------------------+
|                          Far-field|                           FARFIELD|
+-----------------------------------------------------------------------+
|                     Heat flux wall|                            AIRFOIL|
+-----------------------------------------------------------------------+

-------------------- Output Preprocessing ( Zone 0 ) --------------------

WARNING: SURFACE_PRESSURE_DROP can only be computed for at least 2 surfaces (outlet, inlet, ...)

Screen output fields: INNER_ITER, RMS_DENSITY, RMS_NU_TILDE, LIFT, DRAG
History output group(s): ITER, RMS_RES, AERO_COEFF
Convergence field(s): RMS_DENSITY
Warning: No (valid) fields chosen for time convergence monitoring. Time convergence monitoring inactive.
Volume output fields: COORDINATES, SOLUTION, PRIMITIVE

------------------- Geometry Preprocessing ( Zone 0 ) -------------------
Two dimensional problem.
13937 grid points before partitioning.
22842 volume elements before partitioning.
2 surface markers.
192 boundary elements in index 0 (Marker = AIRFOIL).
40 boundary elements in index 1 (Marker = FARFIELD).
Executing the partitioning functions.
Building the graph adjacency structure.
Calling ParMETIS... graph partitioning complete (831 edge cuts).
Distributing ParMETIS coloring.
Rebalancing vertices.
Rebalancing volume element connectivity.
Rebalancing markers and surface elements.
14875 vertices including ghost points. 
23674 interior elements including halo cells. 
18780 triangles.
4894 quadrilaterals.
Establishing MPI communication patterns.
Setting point connectivity.
Renumbering points (Reverse Cuthill McKee Ordering).
Recomputing point connectivity.
Setting element connectivity.
Checking the numerical grid orientation.
All volume elements are correctly orientend.
All surface elements are correctly orientend.
Identifying edges and vertices.
Setting the control volume structure.
Area of the computational grid: 32209.9.
Searching for the closest normal neighbors to the surfaces.
Storing a mapping from global to local point index.
Compute the surface curvature.
Max K: 201.342. Mean K: 8.25322. Standard deviation K: 26.5728.
Checking for periodicity.
Computing mesh quality statistics for the dual control volumes.
+--------------------------------------------------------------+
|           Mesh Quality Metric|        Minimum|        Maximum|
+--------------------------------------------------------------+
|    Orthogonality Angle (deg.)|        74.5587|             90|
|     CV Face Area Aspect Ratio|        1.00127|        3358.89|
|           CV Sub-Volume Ratio|        1.00066|         1218.9|
+--------------------------------------------------------------+
Finding max control volume width.
Communicating number of neighbors.
Wetted area = 2.02145 m.
Area projection in the x-plane = 0.127537 m, y-plane = 0.995873 m.
Max. coordinate in the x-direction = 1 m, y-direction = 0.061646 m.
Min. coordinate in the x-direction = 0 m, y-direction = -0.0622558 m.
Computing wall distances.

-------------------- Solver Preprocessing ( Zone 0 ) --------------------
WARNING: AoA in the solution file (2.76873 deg.) +
         AoA offset in mesh file (0 deg.) = 2.76873 deg.
WARNING: SU2 will use the dCD/dCL provided in the direct solution file: 0.0191726.
WARNING: SU2 will use the dCMz/dCL provided in the direct solution file: 0.00495114.
Viscous flow: Computing pressure using the ideal gas law
based on the free-stream temperature and a density computed
from the Reynolds number.
Force coefficients computed using free-stream values.

-- Models:
+------------------------------------------------------------------------------+
|          Viscosity Model|        Conductivity Model|              Fluid Model|
+------------------------------------------------------------------------------+
|               SUTHERLAND|          CONSTANT_PRANDTL|             STANDARD_AIR|
+------------------------------------------------------------------------------+
-- Fluid properties:
+------------------------------------------------------------------------------+
|                  Name|    Dim. value|    Ref. value|      Unit|Non-dim. value|
+------------------------------------------------------------------------------+
|        Ref. Viscosity|     1.716e-05|             1|   N.s/m^2|     1.716e-05|
|      Sutherland Temp.|        273.15|             1|         K|        273.15|
|     Sutherland Const.|         110.4|             1|         K|         110.4|
+------------------------------------------------------------------------------+
|        Prandtl (Lam.)|             -|             -|         -|          0.71|
|       Prandtl (Turb.)|             -|             -|         -|           0.9|
+------------------------------------------------------------------------------+
|          Gas Constant|       287.058|             1|  N.m/kg.K|       287.058|
|      Spec. Heat Ratio|             -|             -|         -|           1.4|
+------------------------------------------------------------------------------+
-- Initial and free-stream conditions:
+------------------------------------------------------------------------------+
|                  Name|    Dim. value|    Ref. value|      Unit|Non-dim. value|
+------------------------------------------------------------------------------+
|       Static Pressure|         38515|             1|        Pa|         38515|
|               Density|      0.465631|             1|    kg/m^3|      0.465631|
|           Temperature|        288.15|             1|         K|        288.15|
|          Total Energy|        237984|             1|   m^2/s^2|        237984|
|            Velocity-X|       249.486|             1|       m/s|       249.486|
|            Velocity-Y|       12.0654|             1|       m/s|       12.0654|
|    Velocity Magnitude|       249.778|             1|       m/s|       249.778|
+------------------------------------------------------------------------------+
|             Viscosity|    1.7893e-05|             1|   N.s/m^2|    1.7893e-05|
|          Conductivity|             -|             1|   W/m^2.K|             -|
|     Turb. Kin. Energy|       233.959|             1|   m^2/s^2|       233.959|
|     Spec. Dissipation|        608834|             1|       1/s|        608834|
+------------------------------------------------------------------------------+
|           Mach Number|             -|             -|         -|         0.734|
|       Reynolds Number|             -|             -|         -|       6.5e+06|
+------------------------------------------------------------------------------+
Initialize Jacobian structure (Navier-Stokes). MG level: 0.
Initialize Jacobian structure (SA model).

------------------- Numerics Preprocessing ( Zone 0 ) -------------------

----------------- Integration Preprocessing ( Zone 0 ) ------------------

------------------- Iteration Preprocessing ( Zone 0 ) ------------------
Euler/Navier-Stokes/RANS fluid iteration.

------------------------------ Begin Solver -----------------------------

Simulation Run using the Single-zone Driver
WARNING: SU2 was not compiled for an AVX-capable architecture. Performance could be better,
         see https://su2code.github.io/docs_v7/Build-SU2-Linux-MacOS/#compiler-optimizations
+----------------------------------------------------------------+
|  Inner_Iter|    rms[Rho]|     rms[nu]|          CL|          CD|
+----------------------------------------------------------------+
|           0|   -4.917889|   -6.275648|    0.824081|    0.012037|
|           1|   -4.977293|   -6.385697|    0.824124|    0.012059|
|           2|   -5.041389|   -6.517449|    0.824134|    0.012071|
|           3|   -5.087395|   -6.670870|    0.824126|    0.012075|
|           4|   -5.114354|   -6.838102|    0.824113|    0.012075|
|           5|   -5.127641|   -6.969602|    0.824103|    0.012074|
|           6|   -5.132300|   -6.993004|    0.824097|    0.012073|
|           7|   -5.132250|   -6.952854|    0.824098|    0.012074|
|           8|   -5.130154|   -6.915941|    0.824102|    0.012075|
|           9|   -5.127127|   -6.893392|    0.824108|    0.012078|
|          10|   -5.123006|   -6.875401|    0.824116|    0.012081|
|          11|   -5.117156|   -6.852766|    0.824126|    0.012085|
|          12|   -5.109210|   -6.824836|    0.824135|    0.012089|
|          13|   -5.099358|   -6.797319|    0.824144|    0.012094|
|          14|   -5.088228|   -6.776143|    0.824153|    0.012098|
|          15|   -5.076610|   -6.764475|    0.824160|    0.012103|
|          16|   -5.065246|   -6.762882|    0.824166|    0.012107|
|          17|   -5.054756|   -6.770228|    0.824169|    0.012111|
|          18|   -5.045638|   -6.784247|    0.824169|    0.012115|
|          19|   -5.038295|   -6.801776|    0.824166|    0.012119|
|          20|   -5.033032|   -6.819019|    0.824160|    0.012122|
|          21|   -5.030026|   -6.832291|    0.824151|    0.012124|
|          22|   -5.029284|   -6.839309|    0.824139|    0.012126|
|          23|   -5.030619|   -6.840224|    0.824124|    0.012128|
|          24|   -5.033648|   -6.837384|    0.824107|    0.012128|
|          25|   -5.037838|   -6.833995|    0.824087|    0.012129|
|          26|   -5.042581|   -6.832774|    0.824066|    0.012128|
|          27|   -5.047278|   -6.835267|    0.824044|    0.012127|
|          28|   -5.051427|   -6.841755|    0.824021|    0.012126|
|          29|   -5.054668|   -6.851440|    0.823997|    0.012123|
|          30|   -5.056789|   -6.862761|    0.823974|    0.012120|
|          31|   -5.057713|   -6.873819|    0.823951|    0.012117|
|          32|   -5.057456|   -6.882919|    0.823929|    0.012113|
|          33|   -5.056109|   -6.889090|    0.823909|    0.012108|
|          34|   -5.053822|   -6.892352|    0.823889|    0.012103|
|          35|   -5.050799|   -6.893573|    0.823870|    0.012098|
|          36|   -5.047285|   -6.894066|    0.823853|    0.012092|
|          37|   -5.043545|   -6.895144|    0.823837|    0.012085|
|          38|   -5.039830|   -6.897833|    0.823823|    0.012078|
|          39|   -5.036350|   -6.902760|    0.823810|    0.012071|
|          40|   -5.033242|   -6.910151|    0.823798|    0.012064|
|          41|   -5.030567|   -6.919872|    0.823787|    0.012057|
|          42|   -5.028304|   -6.931473|    0.823778|    0.012050|
|          43|   -5.026371|   -6.944213|    0.823770|    0.012043|
|          44|   -5.024638|   -6.957086|    0.823763|    0.012036|
|          45|   -5.022961|   -6.968894|    0.823758|    0.012030|
|          46|   -5.021191|   -6.978388|    0.823754|    0.012024|
|          47|   -5.019202|   -6.984465|    0.823751|    0.012018|
|          48|   -5.016891|   -6.986458|    0.823749|    0.012012|
|          49|   -5.014189|   -6.984334|    0.823749|    0.012007|
|          50|   -5.011055|   -6.978718|    0.823749|    0.012002|
|          51|   -5.007473|   -6.970721|    0.823752|    0.011997|
|          52|   -5.003451|   -6.961675|    0.823755|    0.011993|
|          53|   -4.999009|   -6.952852|    0.823760|    0.011989|
|          54|   -4.994183|   -6.945299|    0.823767|    0.011985|
|          55|   -4.989016|   -6.939761|    0.823774|    0.011981|
|          56|   -4.983557|   -6.936685|    0.823783|    0.011978|
|          57|   -4.977858|   -6.936242|    0.823794|    0.011974|
|          58|   -4.971970|   -6.938374|    0.823805|    0.011971|
|          59|   -4.965944|   -6.942849|    0.823818|    0.011969|
|          60|   -4.959825|   -6.949304|    0.823831|    0.011966|
|          61|   -4.953650|   -6.957293|    0.823846|    0.011963|
|          62|   -4.947454|   -6.966334|    0.823861|    0.011961|
|          63|   -4.941266|   -6.975961|    0.823876|    0.011959|
|          64|   -4.935110|   -6.985752|    0.823892|    0.011957|
|          65|   -4.929011|   -6.995359|    0.823907|    0.011956|
|          66|   -4.922992|   -7.004514|    0.823923|    0.011954|
|          67|   -4.917079|   -7.013021|    0.823938|    0.011953|
|          68|   -4.911297|   -7.020741|    0.823952|    0.011952|
|          69|   -4.905673|   -7.027576|    0.823966|    0.011951|
|          70|   -4.900230|   -7.033467|    0.823979|    0.011951|
|          71|   -4.894992|   -7.038381|    0.823991|    0.011950|
|          72|   -4.889975|   -7.042325|    0.824002|    0.011950|
|          73|   -4.885190|   -7.045348|    0.824012|    0.011950|
|          74|   -4.880642|   -7.047524|    0.824020|    0.011949|
|          75|   -4.876326|   -7.048941|    0.824028|    0.011949|
|          76|   -4.872232|   -7.049689|    0.824034|    0.011949|
|          77|   -4.868343|   -7.049845|    0.824040|    0.011950|
|          78|   -4.864636|   -7.049462|    0.824044|    0.011950|
|          79|   -4.861089|   -7.048555|    0.824048|    0.011950|
|          80|   -4.857679|   -7.047128|    0.824051|    0.011950|
|          81|   -4.854389|   -7.045186|    0.824053|    0.011951|
|          82|   -4.851206|   -7.042761|    0.824055|    0.011951|
|          83|   -4.848130|   -7.039924|    0.824057|    0.011952|
|          84|   -4.845167|   -7.036801|    0.824058|    0.011952|
|          85|   -4.842335|   -7.033563|    0.824059|    0.011953|
|          86|   -4.839663|   -7.030411|    0.824060|    0.011954|
|          87|   -4.837186|   -7.027561|    0.824061|    0.011955|
|          88|   -4.834944|   -7.025217|    0.824062|    0.011956|
|          89|   -4.832981|   -7.023553|    0.824063|    0.011957|
|          90|   -4.831340|   -7.022702|    0.824064|    0.011958|
|          91|   -4.830060|   -7.022744|    0.824065|    0.011959|
|          92|   -4.829175|   -7.023706|    0.824067|    0.011961|
|          93|   -4.828709|   -7.025563|    0.824068|    0.011963|
|          94|   -4.828679|   -7.028249|    0.824070|    0.011964|
|          95|   -4.829090|   -7.031667|    0.824072|    0.011966|
|          96|   -4.829934|   -7.035697|    0.824075|    0.011968|
|          97|   -4.831193|   -7.040210|    0.824077|    0.011971|
|          98|   -4.832839|   -7.045075|    0.824080|    0.011973|
|          99|   -4.834831|   -7.050175|    0.824083|    0.011975|
|         100|   -4.837116|   -7.055402|    0.824086|    0.011978|
|         101|   -4.839635|   -7.060670|    0.824089|    0.011974|
+-----------------------------------------------------------------------+
|Fixed CL Mode                           |Value                         |
+-----------------------------------------------------------------------+
|Current CL                              |0.824089                      |
|Target CL                               |0.824                         |
|Previous AOA                            |2.76873                       |
|Changed AoA by                          |-0.000429466                  |
+-----------------------------------------------------------------------+
+----------------------------------------------------------------+
|  Inner_Iter|    rms[Rho]|     rms[nu]|          CL|          CD|
+----------------------------------------------------------------+
|         102|   -3.559486|   -7.051914|    0.824092|    0.011977|
|         103|   -3.937418|   -7.063790|    0.824095|    0.011980|
|         104|   -4.167162|   -7.070916|    0.824099|    0.011983|
|         105|   -4.241804|   -7.077066|    0.824102|    0.011986|
|         106|   -4.295846|   -7.082810|    0.824105|    0.011989|
|         107|   -4.364943|   -7.088295|    0.824107|    0.011992|
|         108|   -4.448132|   -7.093588|    0.824110|    0.011995|
|         109|   -4.532257|   -7.098745|    0.824112|    0.011998|
|         110|   -4.601220|   -7.103804|    0.824114|    0.012000|
|         111|   -4.647476|   -7.108788|    0.824115|    0.012003|
|         112|   -4.673430|   -7.113717|    0.824116|    0.012006|
|         113|   -4.684112|   -7.118619|    0.824117|    0.012008|
|         114|   -4.684564|   -7.123532|    0.824117|    0.012011|
|         115|   -4.680530|   -7.128487|    0.824117|    0.012013|
|         116|   -4.677264|   -7.133501|    0.824116|    0.012015|
|         117|   -4.677761|   -7.138577|    0.824115|    0.012017|
|         118|   -4.682327|   -7.143718|    0.824114|    0.012019|
|         119|   -4.689364|   -7.148925|    0.824112|    0.012020|
|         120|   -4.696672|   -7.154200|    0.824110|    0.012022|
|         121|   -4.702665|   -7.159545|    0.824108|    0.012023|
|         122|   -4.706957|   -7.164964|    0.824105|    0.012024|
|         123|   -4.710096|   -7.170459|    0.824103|    0.012025|
|         124|   -4.712897|   -7.176041|    0.824100|    0.012026|
|         125|   -4.715938|   -7.181728|    0.824097|    0.012027|
|         126|   -4.719442|   -7.187544|    0.824094|    0.012027|
|         127|   -4.723396|   -7.193512|    0.824091|    0.012028|
|         128|   -4.727693|   -7.199656|    0.824089|    0.012028|
|         129|   -4.732203|   -7.205990|    0.824086|    0.012028|
|         130|   -4.736788|   -7.212519|    0.824084|    0.012028|
|         131|   -4.741312|   -7.219231|    0.824082|    0.012029|
|         132|   -4.745675|   -7.226100|    0.824079|    0.012029|
|         133|   -4.749840|   -7.233075|    0.824077|    0.012029|
|         134|   -4.753845|   -7.240090|    0.824076|    0.012029|
|         135|   -4.757765|   -7.247057|    0.824074|    0.012029|
|         136|   -4.761674|   -7.253878|    0.824073|    0.012029|
|         137|   -4.765599|   -7.260445|    0.824071|    0.012029|
|         138|   -4.769492|   -7.266648|    0.824070|    0.012028|
|         139|   -4.773233|   -7.272386|    0.824069|    0.012028|
|         140|   -4.776645|   -7.277571|    0.824068|    0.012028|
|         141|   -4.779523|   -7.282139|    0.824067|    0.012028|
|         142|   -4.781683|   -7.286052|    0.824066|    0.012028|
|         143|   -4.783005|   -7.289304|    0.824065|    0.012028|
|         144|   -4.783466|   -7.291918|    0.824064|    0.012027|
|         145|   -4.783145|   -7.293944|    0.824062|    0.012027|
|         146|   -4.782197|   -7.295460|    0.824061|    0.012027|
|         147|   -4.780815|   -7.296556|    0.824059|    0.012026|
|         148|   -4.779179|   -7.297329|    0.824057|    0.012026|
|         149|   -4.777429|   -7.297876|    0.824055|    0.012025|
|         150|   -4.775644|   -7.298284|    0.824053|    0.012025|
|         151|   -4.773846|   -7.298622|    0.824050|    0.012024|
|         152|   -4.772014|   -7.298938|    0.824047|    0.012023|
|         153|   -4.770108|   -7.299269|    0.824044|    0.012022|
|         154|   -4.768087|   -7.299620|    0.824040|    0.012022|
|         155|   -4.765924|   -7.299980|    0.824036|    0.012021|
|         156|   -4.763615|   -7.300318|    0.824032|    0.012019|
|         157|   -4.761179|   -7.300593|    0.824028|    0.012018|
|         158|   -4.758655|   -7.300753|    0.824023|    0.012017|
|         159|   -4.756089|   -7.300743|    0.824019|    0.012016|
|         160|   -4.753532|   -7.300510|    0.824014|    0.012015|
|         161|   -4.751030|   -7.300004|    0.824009|    0.012013|
|         162|   -4.748620|   -7.299184|    0.824004|    0.012012|
|         163|   -4.746331|   -7.298026|    0.823999|    0.012011|
|         164|   -4.744184|   -7.296523|    0.823994|    0.012009|
|         165|   -4.742193|   -7.294680|    0.823990|    0.012008|
|         166|   -4.740367|   -7.292522|    0.823985|    0.012006|
|         167|   -4.738711|   -7.290090|    0.823980|    0.012005|
|         168|   -4.737226|   -7.287443|    0.823976|    0.012003|
|         169|   -4.735912|   -7.284646|    0.823972|    0.012002|
|         170|   -4.734765|   -7.281771|    0.823968|    0.012000|
|         171|   -4.733780|   -7.278893|    0.823964|    0.011999|
|         172|   -4.732948|   -7.276083|    0.823961|    0.011998|
|         173|   -4.732260|   -7.273407|    0.823958|    0.011996|
|         174|   -4.731703|   -7.270916|    0.823955|    0.011995|
|         175|   -4.731268|   -7.268659|    0.823953|    0.011994|
|         176|   -4.730944|   -7.266678|    0.823951|    0.011992|
|         177|   -4.730723|   -7.265003|    0.823950|    0.011991|
|         178|   -4.730599|   -7.263652|    0.823949|    0.011990|
|         179|   -4.730570|   -7.262635|    0.823948|    0.011989|
|         180|   -4.730637|   -7.261948|    0.823948|    0.011988|
|         181|   -4.730803|   -7.261582|    0.823948|    0.011987|
|         182|   -4.731075|   -7.261519|    0.823949|    0.011986|
|         183|   -4.731463|   -7.261739|    0.823950|    0.011985|
|         184|   -4.731976|   -7.262213|    0.823951|    0.011984|
|         185|   -4.732624|   -7.262914|    0.823953|    0.011984|
|         186|   -4.733418|   -7.263810|    0.823955|    0.011983|
|         187|   -4.734365|   -7.264870|    0.823957|    0.011982|
|         188|   -4.735468|   -7.266064|    0.823959|    0.011981|
|         189|   -4.736728|   -7.267361|    0.823962|    0.011981|
|         190|   -4.738141|   -7.268738|    0.823965|    0.011980|
|         191|   -4.739694|   -7.270172|    0.823968|    0.011980|
|         192|   -4.741371|   -7.271644|    0.823971|    0.011979|
|         193|   -4.743148|   -7.273139|    0.823974|    0.011979|
|         194|   -4.744996|   -7.274646|    0.823977|    0.011978|
|         195|   -4.746880|   -7.276158|    0.823981|    0.011978|
|         196|   -4.748758|   -7.277671|    0.823985|    0.011977|
|         197|   -4.750589|   -7.279187|    0.823988|    0.011977|
|         198|   -4.752329|   -7.280710|    0.823992|    0.011977|
|         199|   -4.753934|   -7.282247|    0.823996|    0.011977|
|         200|   -4.755364|   -7.283804|    0.823999|    0.011976|
|         201|   -4.756586|   -7.285392|    0.824003|    0.011976|
+-----------------------------------------------------------------------+
|Fixed CL Mode                           |Value                         |
+-----------------------------------------------------------------------+
|Current CL                              |0.824003                      |
|Target CL                               |0.824                         |
|Previous AOA                            |2.7683                        |
|Changed AoA by                          |3.68986e-06                   |
+-----------------------------------------------------------------------+
+----------------------------------------------------------------+
|  Inner_Iter|    rms[Rho]|     rms[nu]|          CL|          CD|
+----------------------------------------------------------------+
|         202|   -4.753310|   -7.287026|    0.824007|    0.011976|
|         203|   -4.757841|   -7.288707|    0.824010|    0.011976|
|         204|   -4.759196|   -7.290441|    0.824014|    0.011976|
|         205|   -4.759618|   -7.292237|    0.824018|    0.011976|
|         206|   -4.759565|   -7.294105|    0.824021|    0.011976|
|         207|   -4.759246|   -7.296052|    0.824025|    0.011976|
|         208|   -4.758809|   -7.298088|    0.824028|    0.011976|
|         209|   -4.758354|   -7.300217|    0.824031|    0.011977|
|         210|   -4.757951|   -7.302445|    0.824035|    0.011977|
|         211|   -4.757664|   -7.304777|    0.824038|    0.011977|
|         212|   -4.757560|   -7.307214|    0.824041|    0.011978|
|         213|   -4.757710|   -7.309758|    0.824044|    0.011978|
|         214|   -4.758187|   -7.312410|    0.824046|    0.011979|
|         215|   -4.759065|   -7.315169|    0.824049|    0.011979|
|         216|   -4.760415|   -7.318035|    0.824051|    0.011980|
|         217|   -4.762301|   -7.321008|    0.824053|    0.011980|
|         218|   -4.764783|   -7.324087|    0.824055|    0.011981|
|         219|   -4.767911|   -7.327274|    0.824057|    0.011982|
|         220|   -4.771729|   -7.330571|    0.824059|    0.011983|
|         221|   -4.776272|   -7.333980|    0.824060|    0.011983|
|         222|   -4.781568|   -7.337507|    0.824062|    0.011984|
|         223|   -4.787633|   -7.341158|    0.824063|    0.011985|
|         224|   -4.794476|   -7.344944|    0.824064|    0.011986|
|         225|   -4.802093|   -7.348874|    0.824065|    0.011987|
|         226|   -4.810470|   -7.352964|    0.824065|    0.011988|
|         227|   -4.819578|   -7.357228|    0.824065|    0.011989|
|         228|   -4.829379|   -7.361684|    0.824066|    0.011990|
|         229|   -4.839816|   -7.366349|    0.824066|    0.011991|
|         230|   -4.850821|   -7.371244|    0.824066|    0.011992|
|         231|   -4.862307|   -7.376386|    0.824065|    0.011993|
|         232|   -4.874173|   -7.381797|    0.824065|    0.011994|
|         233|   -4.886299|   -7.387496|    0.824064|    0.011996|
|         234|   -4.898550|   -7.393500|    0.824064|    0.011997|
|         235|   -4.910778|   -7.399826|    0.824063|    0.011998|
|         236|   -4.922822|   -7.406490|    0.824062|    0.011999|
|         237|   -4.934513|   -7.413502|    0.824061|    0.012000|
|         238|   -4.945682|   -7.420874|    0.824060|    0.012001|
|         239|   -4.956166|   -7.428612|    0.824059|    0.012002|
|         240|   -4.965812|   -7.436719|    0.824058|    0.012003|
|         241|   -4.974493|   -7.445198|    0.824057|    0.012004|
|         242|   -4.982111|   -7.454044|    0.824056|    0.012005|
|         243|   -4.988603|   -7.463253|    0.824055|    0.012005|
|         244|   -4.993947|   -7.472814|    0.824054|    0.012006|
|         245|   -4.998162|   -7.482717|    0.824053|    0.012007|
|         246|   -5.001302|   -7.492943|    0.824052|    0.012008|
|         247|   -5.003457|   -7.503476|    0.824051|    0.012009|
|         248|   -5.004741|   -7.514294|    0.824050|    0.012009|
|         249|   -5.005284|   -7.525372|    0.824049|    0.012010|
|         250|   -5.005227|   -7.536686|    0.824048|    0.012011|
|         251|   -5.004711|   -7.548210|    0.824047|    0.012011|
|         252|   -5.003873|   -7.559918|    0.824046|    0.012012|
|         253|   -5.002845|   -7.571786|    0.824045|    0.012012|
|         254|   -5.001742|   -7.583787|    0.824044|    0.012013|
|         255|   -5.000671|   -7.595900|    0.824042|    0.012013|
|         256|   -4.999724|   -7.608105|    0.824041|    0.012014|
|         257|   -4.998977|   -7.620386|    0.824040|    0.012014|
|         258|   -4.998499|   -7.632729|    0.824039|    0.012014|
|         259|   -4.998342|   -7.645121|    0.824038|    0.012015|
|         260|   -4.998552|   -7.657547|    0.824037|    0.012015|
|         261|   -4.999164|   -7.669992|    0.824036|    0.012015|
|         262|   -5.000206|   -7.682438|    0.824034|    0.012015|
|         263|   -5.001698|   -7.694865|    0.824033|    0.012015|
|         264|   -5.003655|   -7.707252|    0.824032|    0.012015|
|         265|   -5.006087|   -7.719561|    0.824030|    0.012015|
|         266|   -5.009000|   -7.731745|    0.824029|    0.012015|
|         267|   -5.012395|   -7.743754|    0.824027|    0.012015|
|         268|   -5.016270|   -7.755513|    0.824026|    0.012015|
|         269|   -5.020620|   -7.766934|    0.824024|    0.012015|
|         270|   -5.025437|   -7.777915|    0.824023|    0.012014|
|         271|   -5.030709|   -7.788343|    0.824021|    0.012014|
|         272|   -5.036423|   -7.798096|    0.824019|    0.012014|
|         273|   -5.042563|   -7.807047|    0.824018|    0.012013|
|         274|   -5.049107|   -7.815072|    0.824016|    0.012013|
|         275|   -5.056034|   -7.822057|    0.824014|    0.012012|
|         276|   -5.063317|   -7.827904|    0.824012|    0.012012|
|         277|   -5.070926|   -7.832543|    0.824011|    0.012011|
|         278|   -5.078828|   -7.835938|    0.824009|    0.012011|
|         279|   -5.086986|   -7.838091|    0.824007|    0.012010|
|         280|   -5.095358|   -7.839041|    0.824006|    0.012009|
|         281|   -5.103901|   -7.838864|    0.824004|    0.012009|
|         282|   -5.112565|   -7.837670|    0.824003|    0.012008|
|         283|   -5.121298|   -7.835596|    0.824001|    0.012007|
|         284|   -5.130046|   -7.832802|    0.824000|    0.012007|
|         285|   -5.138752|   -7.829455|    0.823999|    0.012006|
|         286|   -5.147355|   -7.825728|    0.823997|    0.012005|
|         287|   -5.155799|   -7.821790|    0.823996|    0.012004|
|         288|   -5.164023|   -7.817805|    0.823995|    0.012004|
|         289|   -5.171974|   -7.813924|    0.823995|    0.012003|
|         290|   -5.179598|   -7.810287|    0.823994|    0.012002|
|         291|   -5.186849|   -7.807015|    0.823993|    0.012001|
|         292|   -5.193688|   -7.804217|    0.823993|    0.012000|
|         293|   -5.200082|   -7.801984|    0.823992|    0.012000|
|         294|   -5.206007|   -7.800394|    0.823992|    0.011999|
|         295|   -5.211449|   -7.799510|    0.823992|    0.011998|
|         296|   -5.216404|   -7.799383|    0.823992|    0.011997|
|         297|   -5.220872|   -7.800050|    0.823992|    0.011997|
|         298|   -5.224867|   -7.801536|    0.823992|    0.011996|
|         299|   -5.228405|   -7.803855|    0.823993|    0.011995|
|         300|   -5.231510|   -7.807010|    0.823993|    0.011994|
|         301|   -5.234208|   -7.810991|    0.823994|    0.011994|
+-----------------------------------------------------------------------+
|Fixed CL Mode                           |Value                         |
+-----------------------------------------------------------------------+
|Current CL                              |0.823994                      |
|Target CL                               |0.824                         |
|Previous AOA                            |2.7683                        |
|Changed AoA by                          |3.4701e-05                    |
+-----------------------------------------------------------------------+
+----------------------------------------------------------------+
|  Inner_Iter|    rms[Rho]|     rms[nu]|          CL|          CD|
+----------------------------------------------------------------+
|         302|   -4.639509|   -7.813689|    0.823994|    0.011994|
|         303|   -4.972916|   -7.820683|    0.823995|    0.011993|
|         304|   -5.128929|   -7.827385|    0.823996|    0.011992|
|         305|   -5.164673|   -7.834525|    0.823997|    0.011992|
|         306|   -5.181635|   -7.842150|    0.823998|    0.011991|
|         307|   -5.198226|   -7.850202|    0.823999|    0.011991|
|         308|   -5.213153|   -7.858592|    0.824000|    0.011990|
|         309|   -5.223432|   -7.867214|    0.824001|    0.011990|
|         310|   -5.228754|   -7.875945|    0.824002|    0.011989|
|         311|   -5.230855|   -7.884649|    0.824003|    0.011989|
|         312|   -5.231408|   -7.893185|    0.824005|    0.011989|
|         313|   -5.231267|   -7.901414|    0.824006|    0.011988|
|         314|   -5.230812|   -7.909206|    0.824007|    0.011988|
|         315|   -5.230330|   -7.916442|    0.824009|    0.011988|
|         316|   -5.230075|   -7.923017|    0.824010|    0.011987|
|         317|   -5.230165|   -7.928847|    0.824012|    0.011987|
|         318|   -5.230534|   -7.933872|    0.824013|    0.011987|
|         319|   -5.230992|   -7.938064|    0.824015|    0.011987|
|         320|   -5.231346|   -7.941429|    0.824016|    0.011987|
|         321|   -5.231501|   -7.944000|    0.824018|    0.011987|
|         322|   -5.231470|   -7.945840|    0.824019|    0.011987|
|         323|   -5.231338|   -7.947029|    0.824021|    0.011987|
|         324|   -5.231197|   -7.947665|    0.824022|    0.011987|
|         325|   -5.231109|   -7.947852|    0.824024|    0.011987|
|         326|   -5.231099|   -7.947693|    0.824025|    0.011987|
|         327|   -5.231172|   -7.947286|    0.824027|    0.011987|
|         328|   -5.231327|   -7.946718|    0.824028|    0.011987|
|         329|   -5.231568|   -7.946065|    0.824030|    0.011988|
|         330|   -5.231911|   -7.945388|    0.824031|    0.011988|
|         331|   -5.232379|   -7.944729|    0.824033|    0.011988|
|         332|   -5.233007|   -7.944116|    0.824034|    0.011988|
|         333|   -5.233834|   -7.943560|    0.824036|    0.011988|
|         334|   -5.234905|   -7.943060|    0.824037|    0.011989|
|         335|   -5.236261|   -7.942602|    0.824039|    0.011989|
|         336|   -5.237933|   -7.942161|    0.824040|    0.011989|
|         337|   -5.239943|   -7.941706|    0.824042|    0.011990|
|         338|   -5.242300|   -7.941203|    0.824043|    0.011990|
|         339|   -5.245002|   -7.940615|    0.824044|    0.011990|
|         340|   -5.248040|   -7.939906|    0.824046|    0.011991|
|         341|   -5.251397|   -7.939046|    0.824047|    0.011991|
|         342|   -5.255059|   -7.938012|    0.824048|    0.011992|
|         343|   -5.259012|   -7.936790|    0.824049|    0.011992|
|         344|   -5.263244|   -7.935380|    0.824050|    0.011992|
|         345|   -5.267750|   -7.933792|    0.824051|    0.011993|
|         346|   -5.272528|   -7.932040|    0.824052|    0.011993|
|         347|   -5.277574|   -7.930148|    0.824053|    0.011994|
|         348|   -5.282884|   -7.928150|    0.824054|    0.011994|
|         349|   -5.288448|   -7.926090|    0.824055|    0.011994|
|         350|   -5.294250|   -7.924019|    0.824056|    0.011995|
|         351|   -5.300265|   -7.921990|    0.824056|    0.011995|
|         352|   -5.306463|   -7.920063|    0.824057|    0.011995|
|         353|   -5.312808|   -7.918295|    0.824057|    0.011996|
|         354|   -5.319258|   -7.916744|    0.824058|    0.011996|
|         355|   -5.325769|   -7.915462|    0.824058|    0.011997|
|         356|   -5.332293|   -7.914497|    0.824058|    0.011997|
|         357|   -5.338783|   -7.913891|    0.824059|    0.011997|
|         358|   -5.345188|   -7.913680|    0.824059|    0.011998|
|         359|   -5.351457|   -7.913892|    0.824059|    0.011998|
|         360|   -5.357536|   -7.914545|    0.824058|    0.011998|
|         361|   -5.363371|   -7.915653|    0.824058|    0.011998|
|         362|   -5.368909|   -7.917218|    0.824058|    0.011999|
|         363|   -5.374098|   -7.919234|    0.824058|    0.011999|
|         364|   -5.378886|   -7.921689|    0.824057|    0.011999|
|         365|   -5.383229|   -7.924560|    0.824057|    0.012000|
|         366|   -5.387087|   -7.927815|    0.824056|    0.012000|
|         367|   -5.390431|   -7.931415|    0.824055|    0.012000|
|         368|   -5.393239|   -7.935313|    0.824055|    0.012000|
|         369|   -5.395501|   -7.939455|    0.824054|    0.012000|
|         370|   -5.397218|   -7.943781|    0.824053|    0.012000|
|         371|   -5.398405|   -7.948225|    0.824052|    0.012001|
|         372|   -5.399085|   -7.952718|    0.824051|    0.012001|
|         373|   -5.399291|   -7.957185|    0.824050|    0.012001|
|         374|   -5.399068|   -7.961553|    0.824049|    0.012001|
|         375|   -5.398466|   -7.965747|    0.824048|    0.012001|
|         376|   -5.397541|   -7.969697|    0.824046|    0.012001|
|         377|   -5.396353|   -7.973335|    0.824045|    0.012001|
|         378|   -5.394963|   -7.976603|    0.824044|    0.012001|
|         379|   -5.393434|   -7.979452|    0.824042|    0.012001|
|         380|   -5.391828|   -7.981842|    0.824041|    0.012001|
|         381|   -5.390204|   -7.983745|    0.824040|    0.012001|
|         382|   -5.388616|   -7.985149|    0.824038|    0.012001|
|         383|   -5.387117|   -7.986052|    0.824037|    0.012001|
|         384|   -5.385754|   -7.986466|    0.824035|    0.012001|
|         385|   -5.384568|   -7.986414|    0.824034|    0.012001|
|         386|   -5.383597|   -7.985929|    0.824033|    0.012001|
|         387|   -5.382873|   -7.985054|    0.824031|    0.012001|
|         388|   -5.382420|   -7.983836|    0.824030|    0.012001|
|         389|   -5.382263|   -7.982326|    0.824028|    0.012001|
|         390|   -5.382416|   -7.980579|    0.824027|    0.012001|
|         391|   -5.382892|   -7.978647|    0.824026|    0.012001|
|         392|   -5.383700|   -7.976582|    0.824024|    0.012001|
|         393|   -5.384842|   -7.974430|    0.824023|    0.012001|
|         394|   -5.386319|   -7.972236|    0.824022|    0.012000|
|         395|   -5.388127|   -7.970037|    0.824021|    0.012000|
|         396|   -5.390259|   -7.967864|    0.824019|    0.012000|
|         397|   -5.392705|   -7.965744|    0.824018|    0.012000|
|         398|   -5.395453|   -7.963695|    0.824017|    0.012000|
|         399|   -5.398486|   -7.961730|    0.824016|    0.012000|
|         400|   -5.401789|   -7.959856|    0.824015|    0.012000|
|         401|   -5.405341|   -7.958076|    0.824014|    0.011998|
+-----------------------------------------------------------------------+
|Fixed CL Mode                           |Value                         |
+-----------------------------------------------------------------------+
|Current CL                              |0.824014                      |
|Target CL                               |0.824                         |
|Previous AOA                            |2.76833                       |
|Changed AoA by                          |-7.558e-05                    |
+-----------------------------------------------------------------------+
+----------------------------------------------------------------+
|  Inner_Iter|    rms[Rho]|     rms[nu]|          CL|          CD|
+----------------------------------------------------------------+
|         402|   -4.313723|   -7.930294|    0.824013|    0.011998|
|         403|   -4.692176|   -7.941399|    0.824013|    0.011998|
|         404|   -4.920123|   -7.943991|    0.824012|    0.011998|
|         405|   -4.987939|   -7.944830|    0.824011|    0.011998|
|         406|   -5.032763|   -7.944942|    0.824010|    0.011998|
|         407|   -5.089566|   -7.944608|    0.824010|    0.011998|
|         408|   -5.155880|   -7.943974|    0.824009|    0.011997|
|         409|   -5.219436|   -7.943154|    0.824009|    0.011997|
|         410|   -5.269368|   -7.942231|    0.824009|    0.011997|
|         411|   -5.303764|   -7.941251|    0.824008|    0.011997|
|         412|   -5.326441|   -7.940249|    0.824008|    0.011997|
|         413|   -5.340839|   -7.939267|    0.824008|    0.011997|
|         414|   -5.349304|   -7.938349|    0.824008|    0.011996|
|         415|   -5.354577|   -7.937530|    0.824008|    0.011996|
|         416|   -5.359678|   -7.936822|    0.824008|    0.011996|
|         417|   -5.366711|   -7.936230|    0.824008|    0.011996|
|         418|   -5.376179|   -7.935761|    0.824008|    0.011996|
|         419|   -5.387247|   -7.935430|    0.824008|    0.011996|
|         420|   -5.398574|   -7.935257|    0.824008|    0.011996|
|         421|   -5.409182|   -7.935262|    0.824009|    0.011996|
|         422|   -5.418853|   -7.935461|    0.824009|    0.011995|
|         423|   -5.427932|   -7.935867|    0.824009|    0.011995|
|         424|   -5.436833|   -7.936487|    0.824010|    0.011995|
|         425|   -5.445684|   -7.937328|    0.824010|    0.011995|
|         426|   -5.454275|   -7.938396|    0.824011|    0.011995|
|         427|   -5.462216|   -7.939696|    0.824011|    0.011995|
|         428|   -5.469142|   -7.941233|    0.824012|    0.011995|
|         429|   -5.474833|   -7.943005|    0.824013|    0.011995|
|         430|   -5.479242|   -7.945009|    0.824013|    0.011995|
|         431|   -5.482479|   -7.947234|    0.824014|    0.011995|
|         432|   -5.484778|   -7.949663|    0.824015|    0.011995|
|         433|   -5.486445|   -7.952271|    0.824016|    0.011995|
|         434|   -5.487803|   -7.955028|    0.824016|    0.011995|
|         435|   -5.489125|   -7.957894|    0.824017|    0.011995|
|         436|   -5.490579|   -7.960824|    0.824018|    0.011995|
|         437|   -5.492210|   -7.963766|    0.824019|    0.011995|
|         438|   -5.493941|   -7.966668|    0.824020|    0.011995|
|         439|   -5.495607|   -7.969473|    0.824021|    0.011995|
|         440|   -5.496996|   -7.972126|    0.824022|    0.011995|
|         441|   -5.497897|   -7.974573|    0.824023|    0.011995|
|         442|   -5.498147|   -7.976767|    0.824023|    0.011995|
|         443|   -5.497672|   -7.978664|    0.824024|    0.011995|
|         444|   -5.496498|   -7.980228|    0.824025|    0.011995|
|         445|   -5.494749|   -7.981432|    0.824026|    0.011995|
|         446|   -5.492608|   -7.982257|    0.824027|    0.011995|
|         447|   -5.490280|   -7.982693|    0.824028|    0.011995|
|         448|   -5.487951|   -7.982740|    0.824028|    0.011996|
|         449|   -5.485757|   -7.982407|    0.824029|    0.011996|
|         450|   -5.483779|   -7.981714|    0.824030|    0.011996|
|         451|   -5.482047|   -7.980689|    0.824030|    0.011996|
|         452|   -5.480555|   -7.979368|    0.824031|    0.011996|
|         453|   -5.479277|   -7.977794|    0.824032|    0.011996|
|         454|   -5.478187|   -7.976017|    0.824032|    0.011996|
|         455|   -5.477273|   -7.974088|    0.824033|    0.011996|
|         456|   -5.476536|   -7.972064|    0.824033|    0.011996|
|         457|   -5.475996|   -7.970004|    0.824033|    0.011996|
|         458|   -5.475687|   -7.967966|    0.824033|    0.011996|
|         459|   -5.475646|   -7.966007|    0.824034|    0.011996|
|         460|   -5.475912|   -7.964182|    0.824034|    0.011997|
|         461|   -5.476517|   -7.962544|    0.824034|    0.011997|
|         462|   -5.477484|   -7.961141|    0.824034|    0.011997|
|         463|   -5.478828|   -7.960014|    0.824034|    0.011997|
|         464|   -5.480555|   -7.959201|    0.824034|    0.011997|
|         465|   -5.482665|   -7.958732|    0.824034|    0.011997|
|         466|   -5.485153|   -7.958630|    0.824033|    0.011997|
|         467|   -5.488009|   -7.958914|    0.824033|    0.011997|
|         468|   -5.491224|   -7.959592|    0.824033|    0.011997|
|         469|   -5.494784|   -7.960667|    0.824033|    0.011997|
|         470|   -5.498677|   -7.962133|    0.824032|    0.011997|
|         471|   -5.502886|   -7.963977|    0.824032|    0.011997|
|         472|   -5.507390|   -7.966180|    0.824031|    0.011997|
|         473|   -5.512167|   -7.968713|    0.824031|    0.011997|
|         474|   -5.517191|   -7.971542|    0.824030|    0.011997|
|         475|   -5.522431|   -7.974627|    0.824030|    0.011997|
|         476|   -5.527851|   -7.977920|    0.824029|    0.011997|
|         477|   -5.533413|   -7.981372|    0.824029|    0.011997|
|         478|   -5.539073|   -7.984927|    0.824028|    0.011997|
|         479|   -5.544786|   -7.988531|    0.824028|    0.011997|
|         480|   -5.550501|   -7.992128|    0.824027|    0.011997|
|         481|   -5.556168|   -7.995665|    0.824027|    0.011997|
|         482|   -5.561732|   -7.999091|    0.824026|    0.011997|
|         483|   -5.567138|   -8.002362|    0.824026|    0.011996|
|         484|   -5.572332|   -8.005444|    0.824025|    0.011996|
|         485|   -5.577259|   -8.008308|    0.824025|    0.011996|
|         486|   -5.581870|   -8.010937|    0.824025|    0.011996|
|         487|   -5.586118|   -8.013326|    0.824024|    0.011996|
|         488|   -5.589960|   -8.015478|    0.824024|    0.011996|
|         489|   -5.593363|   -8.017408|    0.824023|    0.011996|
|         490|   -5.596299|   -8.019139|    0.824023|    0.011996|
|         491|   -5.598750|   -8.020702|    0.824023|    0.011996|
|         492|   -5.600708|   -8.022134|    0.824022|    0.011996|
|         493|   -5.602174|   -8.023472|    0.824022|    0.011995|
|         494|   -5.603157|   -8.024755|    0.824022|    0.011995|
|         495|   -5.603678|   -8.026023|    0.824021|    0.011995|
|         496|   -5.603764|   -8.027316|    0.824021|    0.011995|
|         497|   -5.603449|   -8.028668|    0.824021|    0.011995|
|         498|   -5.602773|   -8.030110|    0.824021|    0.011995|
|         499|   -5.601782|   -8.031668|    0.824021|    0.011995|
|         500|   -5.600524|   -8.033361|    0.824020|    0.011995|
|         501|   -5.599049|   -8.035203|    0.824020|    0.011993|
+-----------------------------------------------------------------------+
|Fixed CL Mode                           |Value                         |
+-----------------------------------------------------------------------+
|Current CL                              |0.82402                       |
|Target CL                               |0.824                         |
|Previous AOA                            |2.76826                       |
|Changed AoA by                          |-0.000101958                  |
+-----------------------------------------------------------------------+
+----------------------------------------------------------------+
|  Inner_Iter|    rms[Rho]|     rms[nu]|          CL|          CD|
+----------------------------------------------------------------+
|         502|   -4.184875|   -7.977891|    0.824020|    0.011993|
|         503|   -4.569413|   -8.008710|    0.824020|    0.011993|
|         504|   -4.812439|   -8.020130|    0.824020|    0.011992|
|         505|   -4.888391|   -8.027538|    0.824020|    0.011992|
|         506|   -4.938331|   -8.033452|    0.824020|    0.011992|
|         507|   -5.002870|   -8.038475|    0.824020|    0.011992|
|         508|   -5.081300|   -8.042832|    0.824020|    0.011992|
|         509|   -5.160220|   -8.046689|    0.824019|    0.011992|
|         510|   -5.224558|   -8.050167|    0.824019|    0.011992|
|         511|   -5.268849|   -8.053317|    0.824019|    0.011992|
|         512|   -5.296639|   -8.056178|    0.824019|    0.011991|
|         513|   -5.312447|   -8.058830|    0.824019|    0.011991|
|         514|   -5.319842|   -8.061377|    0.824020|    0.011991|
|         515|   -5.323153|   -8.063878|    0.824020|    0.011991|
|         516|   -5.326987|   -8.066335|    0.824020|    0.011991|
|         517|   -5.334391|   -8.068714|    0.824020|    0.011991|
|         518|   -5.345971|   -8.070975|    0.824020|    0.011991|
|         519|   -5.360349|   -8.073097|    0.824020|    0.011991|
|         520|   -5.375364|   -8.075076|    0.824020|    0.011991|
|         521|   -5.389394|   -8.076896|    0.824020|    0.011991|
|         522|   -5.402071|   -8.078530|    0.824020|    0.011991|
|         523|   -5.414044|   -8.079937|    0.824020|    0.011991|
|         524|   -5.426176|   -8.081073|    0.824020|    0.011991|
|         525|   -5.438896|   -8.081906|    0.824021|    0.011991|
|         526|   -5.452045|   -8.082410|    0.824021|    0.011991|
|         527|   -5.465070|   -8.082592|    0.824021|    0.011991|
|         528|   -5.477331|   -8.082472|    0.824021|    0.011991|
|         529|   -5.488316|   -8.082081|    0.824021|    0.011991|
|         530|   -5.497736|   -8.081460|    0.824021|    0.011991|
|         531|   -5.505567|   -8.080654|    0.824021|    0.011991|
|         532|   -5.512057|   -8.079711|    0.824021|    0.011991|
|         533|   -5.517682|   -8.078670|    0.824021|    0.011991|
|         534|   -5.523058|   -8.077571|    0.824021|    0.011991|
|         535|   -5.528794|   -8.076444|    0.824021|    0.011991|
|         536|   -5.535367|   -8.075315|    0.824022|    0.011991|
|         537|   -5.543035|   -8.074202|    0.824022|    0.011992|
|         538|   -5.551810|   -8.073121|    0.824022|    0.011992|
|         539|   -5.561466|   -8.072082|    0.824022|    0.011992|
|         540|   -5.571583|   -8.071096|    0.824022|    0.011992|
|         541|   -5.581618|   -8.070172|    0.824021|    0.011992|
|         542|   -5.591015|   -8.069318|    0.824021|    0.011992|
|         543|   -5.599324|   -8.068545|    0.824021|    0.011992|
|         544|   -5.606310|   -8.067860|    0.824021|    0.011993|
|         545|   -5.612004|   -8.067272|    0.824021|    0.011993|
|         546|   -5.616666|   -8.066787|    0.824021|    0.011993|
|         547|   -5.620685|   -8.066410|    0.824021|    0.011993|
|         548|   -5.624463|   -8.066141|    0.824020|    0.011993|
|         549|   -5.628303|   -8.065973|    0.824020|    0.011993|
|         550|   -5.632360|   -8.065900|    0.824020|    0.011994|
|         551|   -5.636629|   -8.065913|    0.824019|    0.011994|
|         552|   -5.640976|   -8.066002|    0.824019|    0.011994|
|         553|   -5.645193|   -8.066154|    0.824019|    0.011994|
|         554|   -5.649060|   -8.066353|    0.824018|    0.011994|
|         555|   -5.652396|   -8.066590|    0.824018|    0.011995|
|         556|   -5.655099|   -8.066852|    0.824017|    0.011995|
|         557|   -5.657152|   -8.067128|    0.824017|    0.011995|
|         558|   -5.658617|   -8.067412|    0.824016|    0.011995|
|         559|   -5.659606|   -8.067700|    0.824015|    0.011995|
|         560|   -5.660249|   -8.067995|    0.824015|    0.011996|
|         561|   -5.660676|   -8.068304|    0.824014|    0.011996|
|         562|   -5.660991|   -8.068640|    0.824013|    0.011996|
|         563|   -5.661274|   -8.069015|    0.824013|    0.011996|
|         564|   -5.661578|   -8.069445|    0.824012|    0.011996|
|         565|   -5.661940|   -8.069946|    0.824011|    0.011996|
|         566|   -5.662386|   -8.070535|    0.824010|    0.011997|
|         567|   -5.662937|   -8.071234|    0.824009|    0.011997|
|         568|   -5.663619|   -8.072061|    0.824008|    0.011997|
|         569|   -5.664456|   -8.073034|    0.824007|    0.011997|
|         570|   -5.665477|   -8.074172|    0.824007|    0.011997|
|         571|   -5.666711|   -8.075492|    0.824006|    0.011997|
|         572|   -5.668185|   -8.077003|    0.824005|    0.011997|
|         573|   -5.669924|   -8.078717|    0.824004|    0.011997|
|         574|   -5.671949|   -8.080642|    0.824003|    0.011998|
|         575|   -5.674276|   -8.082762|    0.824002|    0.011998|
|         576|   -5.676919|   -8.085056|    0.824001|    0.011998|
|         577|   -5.679887|   -8.087503|    0.824001|    0.011998|
|         578|   -5.683188|   -8.090078|    0.824000|    0.011998|
|         579|   -5.686827|   -8.092749|    0.823999|    0.011998|
|         580|   -5.690805|   -8.095485|    0.823998|    0.011998|
|         581|   -5.695124|   -8.098251|    0.823998|    0.011998|
|         582|   -5.699782|   -8.101009|    0.823997|    0.011998|
|         583|   -5.704774|   -8.103723|    0.823997|    0.011998|
|         584|   -5.710093|   -8.106359|    0.823996|    0.011998|
|         585|   -5.715730|   -8.108882|    0.823996|    0.011998|
|         586|   -5.721672|   -8.111266|    0.823995|    0.011998|
|         587|   -5.727902|   -8.113488|    0.823995|    0.011998|
|         588|   -5.734401|   -8.115533|    0.823994|    0.011998|
|         589|   -5.741146|   -8.117396|    0.823994|    0.011998|
|         590|   -5.748110|   -8.119079|    0.823994|    0.011998|
|         591|   -5.755262|   -8.120592|    0.823994|    0.011997|
|         592|   -5.762568|   -8.121956|    0.823994|    0.011997|
|         593|   -5.769988|   -8.123201|    0.823994|    0.011997|
|         594|   -5.777480|   -8.124359|    0.823994|    0.011997|
|         595|   -5.784995|   -8.125471|    0.823994|    0.011997|
|         596|   -5.792482|   -8.126578|    0.823994|    0.011997|
|         597|   -5.799886|   -8.127723|    0.823994|    0.011997|
|         598|   -5.807150|   -8.128948|    0.823994|    0.011997|
|         599|   -5.814212|   -8.130289|    0.823994|    0.011996|
|         600|   -5.821012|   -8.131782|    0.823994|    0.011996|
|         601|   -5.827489|   -8.133461|    0.823994|    0.011996|
+-----------------------------------------------------------------------+
|Fixed CL Mode                           |Value                         |
+-----------------------------------------------------------------------+
|Current CL                              |0.823994                      |
|Target CL                               |0.824                         |
|Previous AOA                            |2.76816                       |
|Changed AoA by                          |3.02727e-05                   |
+-----------------------------------------------------------------------+
+----------------------------------------------------------------+
|  Inner_Iter|    rms[Rho]|     rms[nu]|          CL|          CD|
+----------------------------------------------------------------+
|         602|   -4.710894|   -8.125634|    0.823994|    0.011996|
|         603|   -5.089529|   -8.132404|    0.823994|    0.011996|
|         604|   -5.321545|   -8.136082|    0.823995|    0.011996|
|         605|   -5.394798|   -8.139386|    0.823995|    0.011996|
|         606|   -5.443749|   -8.142747|    0.823995|    0.011995|
|         607|   -5.504183|   -8.146266|    0.823995|    0.011995|
|         608|   -5.573693|   -8.149964|    0.823996|    0.011995|
|         609|   -5.638800|   -8.153841|    0.823996|    0.011995|
|         610|   -5.687171|   -8.157881|    0.823996|    0.011995|
|         611|   -5.716980|   -8.162053|    0.823997|    0.011994|
|         612|   -5.733382|   -8.166320|    0.823997|    0.011994|
|         613|   -5.741109|   -8.170660|    0.823997|    0.011994|
|         614|   -5.743382|   -8.175058|    0.823997|    0.011994|
|         615|   -5.743354|   -8.179500|    0.823998|    0.011994|
|         616|   -5.743981|   -8.183966|    0.823998|    0.011993|
|         617|   -5.747010|   -8.188437|    0.823998|    0.011993|
|         618|   -5.752534|   -8.192896|    0.823998|    0.011993|
|         619|   -5.759397|   -8.197330|    0.823999|    0.011993|
|         620|   -5.766083|   -8.201735|    0.823999|    0.011993|
|         621|   -5.771565|   -8.206110|    0.823999|    0.011992|
|         622|   -5.775659|   -8.210455|    0.823999|    0.011992|
|         623|   -5.778809|   -8.214770|    0.823999|    0.011992|
|         624|   -5.781604|   -8.219055|    0.824000|    0.011992|
|         625|   -5.784436|   -8.223310|    0.824000|    0.011992|
|         626|   -5.787438|   -8.227536|    0.824000|    0.011992|
|         627|   -5.790573|   -8.231736|    0.824000|    0.011992|
|         628|   -5.793759|   -8.235909|    0.824000|    0.011991|
|         629|   -5.796921|   -8.240051|    0.824000|    0.011991|
|         630|   -5.800014|   -8.244160|    0.824000|    0.011991|
|         631|   -5.803026|   -8.248227|    0.824000|    0.011991|
|         632|   -5.805993|   -8.252242|    0.824000|    0.011991|
|         633|   -5.809009|   -8.256192|    0.824000|    0.011991|
|         634|   -5.812216|   -8.260061|    0.824000|    0.011991|
|         635|   -5.815778|   -8.263831|    0.824000|    0.011991|
|         636|   -5.819841|   -8.267475|    0.824000|    0.011991|
|         637|   -5.824508|   -8.270988|    0.824001|    0.011991|
|         638|   -5.829817|   -8.274364|    0.824001|    0.011991|
|         639|   -5.835744|   -8.277601|    0.824001|    0.011991|
|         640|   -5.842209|   -8.280694|    0.824001|    0.011991|
|         641|   -5.849092|   -8.283639|    0.824001|    0.011991|
|         642|   -5.856266|   -8.286436|    0.824001|    0.011991|
|         643|   -5.863618|   -8.289087|    0.824001|    0.011991|
|         644|   -5.871083|   -8.291598|    0.824001|    0.011991|
|         645|   -5.878652|   -8.293977|    0.824001|    0.011991|
|         646|   -5.886368|   -8.296237|    0.824001|    0.011991|
|         647|   -5.894309|   -8.298397|    0.824001|    0.011991|
|         648|   -5.902563|   -8.300477|    0.824001|    0.011991|
|         649|   -5.911195|   -8.302502|    0.824001|    0.011992|
|         650|   -5.920232|   -8.304498|    0.824002|    0.011992|
|         651|   -5.929655|   -8.306493|    0.824002|    0.011992|
|         652|   -5.939399|   -8.308517|    0.824002|    0.011992|
|         653|   -5.949368|   -8.310598|    0.824002|    0.011992|
|         654|   -5.959450|   -8.312762|    0.824002|    0.011992|
|         655|   -5.969530|   -8.315033|    0.824003|    0.011993|
|         656|   -5.979509|   -8.317430|    0.824003|    0.011993|
|         657|   -5.989305|   -8.319966|    0.824003|    0.011993|
|         658|   -5.998860|   -8.322652|    0.824004|    0.011993|
|         659|   -6.008132|   -8.325487|    0.824004|    0.011994|
|         660|   -6.017087|   -8.328466|    0.824004|    0.011994|
|         661|   -6.025698|   -8.331577|    0.824005|    0.011994|
|         662|   -6.033929|   -8.334798|    0.824005|    0.011994|
|         663|   -6.041743|   -8.338101|    0.824005|    0.011994|
|         664|   -6.049093|   -8.341457|    0.824006|    0.011995|
|         665|   -6.055934|   -8.344825|    0.824006|    0.011995|
|         666|   -6.062223|   -8.348156|    0.824006|    0.011995|
|         667|   -6.067922|   -8.351400|    0.824007|    0.011996|
|         668|   -6.073007|   -8.354506|    0.824007|    0.011996|
|         669|   -6.077467|   -8.357426|    0.824007|    0.011996|
|         670|   -6.081305|   -8.360114|    0.824007|    0.011996|
|         671|   -6.084538|   -8.362532|    0.824008|    0.011997|
|         672|   -6.087194|   -8.364650|    0.824008|    0.011997|
|         673|   -6.089312|   -8.366448|    0.824008|    0.011997|
|         674|   -6.090941|   -8.367917|    0.824008|    0.011997|
|         675|   -6.092135|   -8.369064|    0.824008|    0.011997|
|         676|   -6.092953|   -8.369912|    0.824009|    0.011998|
|         677|   -6.093460|   -8.370490|    0.824009|    0.011998|
|         678|   -6.093721|   -8.370835|    0.824009|    0.011998|
|         679|   -6.093803|   -8.370995|    0.824009|    0.011998|
|         680|   -6.093774|   -8.371024|    0.824009|    0.011998|
|         681|   -6.093699|   -8.370984|    0.824009|    0.011999|
|         682|   -6.093640|   -8.370941|    0.824009|    0.011999|
|         683|   -6.093658|   -8.370959|    0.824009|    0.011999|
|         684|   -6.093809|   -8.371092|    0.824008|    0.011999|
|         685|   -6.094143|   -8.371392|    0.824008|    0.011999|
|         686|   -6.094707|   -8.371903|    0.824008|    0.011999|
|         687|   -6.095544|   -8.372662|    0.824008|    0.011999|
|         688|   -6.096690|   -8.373696|    0.824008|    0.011999|
|         689|   -6.098180|   -8.375026|    0.824007|    0.012000|
|         690|   -6.100042|   -8.376660|    0.824007|    0.012000|
|         691|   -6.102300|   -8.378600|    0.824007|    0.012000|
|         692|   -6.104974|   -8.380836|    0.824006|    0.012000|
|         693|   -6.108082|   -8.383348|    0.824006|    0.012000|
|         694|   -6.111635|   -8.386108|    0.824006|    0.012000|
|         695|   -6.115644|   -8.389080|    0.824005|    0.012000|
|         696|   -6.120112|   -8.392220|    0.824005|    0.012000|
|         697|   -6.125043|   -8.395478|    0.824004|    0.012000|
|         698|   -6.130434|   -8.398799|    0.824004|    0.012000|
|         699|   -6.136280|   -8.402125|    0.824004|    0.012000|
|         700|   -6.142571|   -8.405399|    0.824003|    0.012000|
|         701|   -6.149294|   -8.408563|    0.824003|    0.011999|
+-----------------------------------------------------------------------+
|Fixed CL Mode                           |Value                         |
+-----------------------------------------------------------------------+
|Current CL                              |0.824003                      |
|Target CL                               |0.824                         |
|Previous AOA                            |2.76819                       |
|Changed AoA by                          |-1.56163e-05                  |
+-----------------------------------------------------------------------+
+----------------------------------------------------------------+
|  Inner_Iter|    rms[Rho]|     rms[nu]|          CL|          CD|
+----------------------------------------------------------------+
|         702|   -4.999138|   -8.403363|    0.824002|    0.011999|
|         703|   -5.381449|   -8.410453|    0.824002|    0.011999|
|         704|   -5.620707|   -8.414126|    0.824002|    0.011999|
|         705|   -5.695550|   -8.416941|    0.824001|    0.011999|
|         706|   -5.744071|   -8.419269|    0.824001|    0.011999|
|         707|   -5.805110|   -8.421176|    0.824000|    0.011999|
|         708|   -5.877225|   -8.422665|    0.824000|    0.011998|
|         709|   -5.947183|   -8.423747|    0.824000|    0.011998|
|         710|   -6.001908|   -8.424428|    0.823999|    0.011998|
|         711|   -6.038401|   -8.424727|    0.823999|    0.011998|
|         712|   -6.061180|   -8.424679|    0.823999|    0.011998|
|         713|   -6.074730|   -8.424339|    0.823998|    0.011998|
|         714|   -6.082208|   -8.423767|    0.823998|    0.011997|
|         715|   -6.087045|   -8.423026|    0.823998|    0.011997|
|         716|   -6.092766|   -8.422170|    0.823998|    0.011997|
|         717|   -6.101642|   -8.421246|    0.823997|    0.011997|
|         718|   -6.113975|   -8.420298|    0.823997|    0.011997|
|         719|   -6.128411|   -8.419371|    0.823997|    0.011997|
|         720|   -6.142950|   -8.418505|    0.823997|    0.011996|
|         721|   -6.156082|   -8.417735|    0.823997|    0.011996|
|         722|   -6.167426|   -8.417089|    0.823996|    0.011996|
|         723|   -6.177535|   -8.416591|    0.823996|    0.011996|
|         724|   -6.187212|   -8.416258|    0.823996|    0.011996|
|         725|   -6.196954|   -8.416104|    0.823996|    0.011995|
|         726|   -6.206794|   -8.416140|    0.823996|    0.011995|
|         727|   -6.216455|   -8.416376|    0.823996|    0.011995|
|         728|   -6.225557|   -8.416824|    0.823996|    0.011995|
|         729|   -6.233771|   -8.417487|    0.823996|    0.011995|
|         730|   -6.240881|   -8.418367|    0.823996|    0.011994|
|         731|   -6.246815|   -8.419468|    0.823996|    0.011994|
|         732|   -6.251674|   -8.420798|    0.823996|    0.011994|
|         733|   -6.255727|   -8.422362|    0.823996|    0.011994|
|         734|   -6.259365|   -8.424167|    0.823996|    0.011994|
|         735|   -6.263009|   -8.426220|    0.823996|    0.011994|
|         736|   -6.267015|   -8.428527|    0.823996|    0.011993|
|         737|   -6.271600|   -8.431093|    0.823996|    0.011993|
|         738|   -6.276820|   -8.433923|    0.823996|    0.011993|
|         739|   -6.282570|   -8.437020|    0.823996|    0.011993|
|         740|   -6.288615|   -8.440385|    0.823997|    0.011993|
|         741|   -6.294648|   -8.444020|    0.823997|    0.011993|
|         742|   -6.300355|   -8.447921|    0.823997|    0.011993|
|         743|   -6.305495|   -8.452086|    0.823997|    0.011993|
|         744|   -6.309951|   -8.456508|    0.823997|    0.011992|
|         745|   -6.313757|   -8.461182|    0.823997|    0.011992|
|         746|   -6.317076|   -8.466096|    0.823997|    0.011992|
|         747|   -6.320138|   -8.471239|    0.823998|    0.011992|
|         748|   -6.323177|   -8.476596|    0.823998|    0.011992|
|         749|   -6.326369|   -8.482150|    0.823998|    0.011992|
|         750|   -6.329801|   -8.487884|    0.823998|    0.011992|
|         751|   -6.333462|   -8.493778|    0.823998|    0.011992|
|         752|   -6.337266|   -8.499809|    0.823998|    0.011992|
|         753|   -6.341077|   -8.505955|    0.823999|    0.011992|
|         754|   -6.344746|   -8.512192|    0.823999|    0.011992|
|         755|   -6.348141|   -8.518498|    0.823999|    0.011992|
|         756|   -6.351171|   -8.524851|    0.823999|    0.011992|
|         757|   -6.353788|   -8.531229|    0.823999|    0.011992|
|         758|   -6.355988|   -8.537616|    0.823999|    0.011992|
|         759|   -6.357797|   -8.543997|    0.823999|    0.011992|
|         760|   -6.359255|   -8.550359|    0.823999|    0.011992|
|         761|   -6.360403|   -8.556694|    0.824000|    0.011992|
|         762|   -6.361275|   -8.562994|    0.824000|    0.011992|
|         763|   -6.361893|   -8.569258|    0.824000|    0.011992|
|         764|   -6.362270|   -8.575487|    0.824000|    0.011993|
|         765|   -6.362409|   -8.581681|    0.824000|    0.011993|
|         766|   -6.362313|   -8.587845|    0.824000|    0.011993|
|         767|   -6.361984|   -8.593983|    0.824000|    0.011993|
|         768|   -6.361430|   -8.600098|    0.824000|    0.011993|
|         769|   -6.360662|   -8.606192|    0.824000|    0.011993|
|         770|   -6.359694|   -8.612264|    0.824000|    0.011993|
|         771|   -6.358545|   -8.618307|    0.824000|    0.011993|
|         772|   -6.357235|   -8.624314|    0.824000|    0.011993|
|         773|   -6.355783|   -8.630271|    0.824000|    0.011994|
|         774|   -6.354208|   -8.636162|    0.824000|    0.011994|
|         775|   -6.352529|   -8.641966|    0.824000|    0.011994|
|         776|   -6.350765|   -8.647659|    0.824000|    0.011994|
|         777|   -6.348934|   -8.653218|    0.824000|    0.011994|
|         778|   -6.347052|   -8.658618|    0.824000|    0.011994|
|         779|   -6.345137|   -8.663834|    0.824000|    0.011995|
|         780|   -6.343205|   -8.668845|    0.823999|    0.011995|
|         781|   -6.341273|   -8.673636|    0.823999|    0.011995|
|         782|   -6.339356|   -8.678196|    0.823999|    0.011995|
|         783|   -6.337470|   -8.682521|    0.823999|    0.011995|
|         784|   -6.335628|   -8.686614|    0.823999|    0.011995|
|         785|   -6.333844|   -8.690487|    0.823999|    0.011996|
|         786|   -6.332131|   -8.694157|    0.823999|    0.011996|
|         787|   -6.330499|   -8.697647|    0.823999|    0.011996|
|         788|   -6.328960|   -8.700989|    0.823999|    0.011996|
|         789|   -6.327522|   -8.704213|    0.823999|    0.011996|
|         790|   -6.326194|   -8.707356|    0.823999|    0.011996|
|         791|   -6.324982|   -8.710454|    0.823999|    0.011996|
|         792|   -6.323890|   -8.713540|    0.823999|    0.011997|
|         793|   -6.322920|   -8.716647|    0.823999|    0.011997|
|         794|   -6.322074|   -8.719805|    0.823999|    0.011997|
|         795|   -6.321349|   -8.723038|    0.823999|    0.011997|
|         796|   -6.320739|   -8.726366|    0.823999|    0.011997|
|         797|   -6.320239|   -8.729805|    0.823999|    0.011997|
|         798|   -6.319837|   -8.733364|    0.823999|    0.011997|
|         799|   -6.319521|   -8.737050|    0.823999|    0.011998|
|         800|   -6.319276|   -8.740864|    0.823999|    0.011998|
|         801|   -6.319082|   -8.744803|    0.823999|    0.011998|
+-----------------------------------------------------------------------+
|Fixed CL Mode                           |Value                         |
+-----------------------------------------------------------------------+
|Current CL                              |0.823999                      |
|Target CL                               |0.824                         |
|Previous AOA                            |2.76817                       |
|Changed AoA by                          |5.86369e-06                   |
+-----------------------------------------------------------------------+
+----------------------------------------------------------------+
|  Inner_Iter|    rms[Rho]|     rms[nu]|          CL|          CD|
+----------------------------------------------------------------+
|         802|   -5.421132|   -8.742199|    0.823999|    0.011998|
|         803|   -5.784934|   -8.749409|    0.823999|    0.011998|
|         804|   -5.984306|   -8.754584|    0.823999|    0.011998|
|         805|   -6.040591|   -8.759431|    0.823999|    0.011998|
|         806|   -6.078104|   -8.764212|    0.823998|    0.011998|
|         807|   -6.122562|   -8.768995|    0.823998|    0.011998|
|         808|   -6.169896|   -8.773808|    0.823998|    0.011998|
|         809|   -6.210504|   -8.778663|    0.823998|    0.011998|
|         810|   -6.238753|   -8.783558|    0.823998|    0.011998|
|         811|   -6.255828|   -8.788481|    0.823998|    0.011998|
|         812|   -6.265407|   -8.793414|    0.823998|    0.011998|
|         813|   -6.270097|   -8.798341|    0.823998|    0.011998|
|         814|   -6.271493|   -8.803249|    0.823998|    0.011998|
|         815|   -6.271076|   -8.808126|    0.823998|    0.011998|
|         816|   -6.270258|   -8.812957|    0.823997|    0.011998|
|         817|   -6.269942|   -8.817725|    0.823997|    0.011998|
|         818|   -6.270297|   -8.822416|    0.823997|    0.011998|
|         819|   -6.270950|   -8.827018|    0.823997|    0.011998|
|         820|   -6.271388|   -8.831525|    0.823997|    0.011998|
|         821|   -6.271293|   -8.835923|    0.823997|    0.011998|
|         822|   -6.270644|   -8.840198|    0.823997|    0.011998|
|         823|   -6.269613|   -8.844330|    0.823997|    0.011998|
|         824|   -6.268391|   -8.848295|    0.823996|    0.011998|
|         825|   -6.267092|   -8.852067|    0.823996|    0.011998|
|         826|   -6.265750|   -8.855617|    0.823996|    0.011998|
|         827|   -6.264360|   -8.858916|    0.823996|    0.011998|
|         828|   -6.262927|   -8.861938|    0.823996|    0.011997|
|         829|   -6.261474|   -8.864656|    0.823996|    0.011997|
|         830|   -6.260037|   -8.867049|    0.823996|    0.011997|
|         831|   -6.258664|   -8.869096|    0.823996|    0.011997|
|         832|   -6.257405|   -8.870785|    0.823996|    0.011997|
|         833|   -6.256317|   -8.872113|    0.823995|    0.011997|
|         834|   -6.255455|   -8.873076|    0.823995|    0.011997|
|         835|   -6.254873|   -8.873681|    0.823995|    0.011997|
|         836|   -6.254606|   -8.873944|    0.823995|    0.011996|
|         837|   -6.254678|   -8.873885|    0.823995|    0.011996|
|         838|   -6.255088|   -8.873534|    0.823995|    0.011996|
|         839|   -6.255824|   -8.872922|    0.823995|    0.011996|
|         840|   -6.256858|   -8.872089|    0.823995|    0.011996|
|         841|   -6.258156|   -8.871076|    0.823995|    0.011996|
|         842|   -6.259685|   -8.869928|    0.823995|    0.011996|
|         843|   -6.261415|   -8.868691|    0.823995|    0.011996|
|         844|   -6.263326|   -8.867410|    0.823995|    0.011995|
|         845|   -6.265408|   -8.866133|    0.823995|    0.011995|
|         846|   -6.267658|   -8.864905|    0.823995|    0.011995|
|         847|   -6.270077|   -8.863773|    0.823995|    0.011995|
|         848|   -6.272658|   -8.862779|    0.823995|    0.011995|
|         849|   -6.275389|   -8.861963|    0.823995|    0.011995|
|         850|   -6.278245|   -8.861361|    0.823995|    0.011995|
|         851|   -6.281188|   -8.861009|    0.823995|    0.011995|
|         852|   -6.284172|   -8.860939|    0.823995|    0.011995|
|         853|   -6.287147|   -8.861178|    0.823995|    0.011994|
|         854|   -6.290059|   -8.861752|    0.823995|    0.011994|
|         855|   -6.292858|   -8.862682|    0.823996|    0.011994|
|         856|   -6.295498|   -8.863986|    0.823996|    0.011994|
|         857|   -6.297939|   -8.865676|    0.823996|    0.011994|
|         858|   -6.300148|   -8.867763|    0.823996|    0.011994|
|         859|   -6.302096|   -8.870249|    0.823996|    0.011994|
|         860|   -6.303759|   -8.873133|    0.823996|    0.011994|
|         861|   -6.305117|   -8.876406|    0.823996|    0.011994|
|         862|   -6.306155|   -8.880054|    0.823997|    0.011994|
|         863|   -6.306861|   -8.884053|    0.823997|    0.011994|
|         864|   -6.307227|   -8.888372|    0.823997|    0.011994|
|         865|   -6.307251|   -8.892969|    0.823997|    0.011994|
|         866|   -6.306936|   -8.897794|    0.823997|    0.011994|
|         867|   -6.306293|   -8.902786|    0.823998|    0.011994|
|         868|   -6.305337|   -8.907872|    0.823998|    0.011994|
|         869|   -6.304088|   -8.912970|    0.823998|    0.011994|
|         870|   -6.302575|   -8.917990|    0.823998|    0.011994|
|         871|   -6.300825|   -8.922834|    0.823998|    0.011994|
|         872|   -6.298874|   -8.927400|    0.823999|    0.011994|
|         873|   -6.296757|   -8.931585|    0.823999|    0.011994|
|         874|   -6.294510|   -8.935290|    0.823999|    0.011994|
|         875|   -6.292172|   -8.938424|    0.823999|    0.011994|
|         876|   -6.289781|   -8.940910|    0.823999|    0.011994|
|         877|   -6.287374|   -8.942688|    0.824000|    0.011994|
|         878|   -6.284987|   -8.943722|    0.824000|    0.011994|
|         879|   -6.282655|   -8.944000|    0.824000|    0.011994|
|         880|   -6.280412|   -8.943535|    0.824000|    0.011994|
|         881|   -6.278289|   -8.942366|    0.824000|    0.011994|
|         882|   -6.276315|   -8.940554|    0.824000|    0.011994|
|         883|   -6.274517|   -8.938179|    0.824001|    0.011994|
|         884|   -6.272921|   -8.935335|    0.824001|    0.011994|
|         885|   -6.271547|   -8.932126|    0.824001|    0.011994|
|         886|   -6.270417|   -8.928659|    0.824001|    0.011994|
|         887|   -6.269546|   -8.925040|    0.824001|    0.011994|
|         888|   -6.268949|   -8.921372|    0.824001|    0.011995|
|         889|   -6.268640|   -8.917748|    0.824001|    0.011995|
|         890|   -6.268627|   -8.914255|    0.824001|    0.011995|
|         891|   -6.268918|   -8.910965|    0.824001|    0.011995|
|         892|   -6.269517|   -8.907941|    0.824001|    0.011995|
|         893|   -6.270429|   -8.905232|    0.824001|    0.011995|
|         894|   -6.271651|   -8.902883|    0.824001|    0.011995|
|         895|   -6.273184|   -8.900927|    0.824001|    0.011995|
|         896|   -6.275021|   -8.899384|    0.824001|    0.011995|
|         897|   -6.277157|   -8.898266|    0.824001|    0.011995|
|         898|   -6.279581|   -8.897574|    0.824001|    0.011995|
|         899|   -6.282282|   -8.897301|    0.824001|    0.011995|
|         900|   -6.285247|   -8.897433|    0.824001|    0.011996|
|         901|   -6.288458|   -8.897952|    0.824001|    0.011996|
+-----------------------------------------------------------------------+
|Fixed CL Mode                           |Value                         |
+-----------------------------------------------------------------------+
|Current CL                              |0.824001                      |
|Target CL                               |0.824                         |
|Previous AOA                            |2.76818                       |
[...]
|        5298|   -6.046666|   -7.937279|    0.824239|    0.012000|
|        5299|   -6.053353|   -7.941245|    0.824239|    0.012000|
|        5300|   -6.059616|   -7.945265|    0.824239|    0.012000|
|        5301|   -6.065420|   -7.949355|    0.824239|    0.012000|
|        5302|   -6.070744|   -7.953528|    0.824239|    0.012000|
|        5303|   -6.075580|   -7.957792|    0.824239|    0.012000|
|        5304|   -6.079932|   -7.962155|    0.824239|    0.012000|
|        5305|   -6.083816|   -7.966618|    0.824239|    0.012000|
|        5306|   -6.087259|   -7.971184|    0.824239|    0.011999|
|        5307|   -6.090298|   -7.975851|    0.824239|    0.011999|
|        5308|   -6.092980|   -7.980619|    0.824239|    0.011999|
|        5309|   -6.095356|   -7.985486|    0.824240|    0.011999|
|        5310|   -6.097483|   -7.990451|    0.824240|    0.011999|
|        5311|   -6.099420|   -7.995511|    0.824240|    0.011999|
|        5312|   -6.101227|   -8.000668|    0.824240|    0.011999|
|        5313|   -6.102962|   -8.005921|    0.824240|    0.011999|
|        5314|   -6.104680|   -8.011272|    0.824240|    0.011999|
|        5315|   -6.106435|   -8.016725|    0.824240|    0.011999|
|        5316|   -6.108273|   -8.022284|    0.824240|    0.011999|
|        5317|   -6.110236|   -8.027954|    0.824240|    0.011999|
|        5318|   -6.112362|   -8.033741|    0.824240|    0.011999|
|        5319|   -6.114679|   -8.039651|    0.824241|    0.012000|
|        5320|   -6.117211|   -8.045689|    0.824241|    0.012000|
|        5321|   -6.119975|   -8.051861|    0.824241|    0.012000|
|        5322|   -6.122980|   -8.058171|    0.824241|    0.012000|
|        5323|   -6.126230|   -8.064618|    0.824241|    0.012000|
|        5324|   -6.129720|   -8.071204|    0.824241|    0.012000|
|        5325|   -6.133442|   -8.077930|    0.824241|    0.012000|
|        5326|   -6.137378|   -8.084794|    0.824241|    0.012000|
|        5327|   -6.141507|   -8.091793|    0.824242|    0.012000|
|        5328|   -6.145800|   -8.098922|    0.824242|    0.012000|
|        5329|   -6.150225|   -8.106175|    0.824242|    0.012000|
|        5330|   -6.154744|   -8.113543|    0.824242|    0.012000|
|        5331|   -6.159313|   -8.121016|    0.824242|    0.012000|
|        5332|   -6.163891|   -8.128583|    0.824242|    0.012000|
|        5333|   -6.168435|   -8.136231|    0.824242|    0.012001|
|        5334|   -6.172900|   -8.143948|    0.824243|    0.012001|
|        5335|   -6.177241|   -8.151723|    0.824243|    0.012001|
|        5336|   -6.181417|   -8.159542|    0.824243|    0.012001|
|        5337|   -6.185393|   -8.167394|    0.824243|    0.012001|
|        5338|   -6.189135|   -8.175265|    0.824243|    0.012001|
|        5339|   -6.192621|   -8.183145|    0.824243|    0.012001|
|        5340|   -6.195832|   -8.191025|    0.824243|    0.012001|
|        5341|   -6.198761|   -8.198894|    0.824243|    0.012001|
|        5342|   -6.201406|   -8.206744|    0.824244|    0.012001|
|        5343|   -6.203777|   -8.214569|    0.824244|    0.012001|
|        5344|   -6.205890|   -8.222365|    0.824244|    0.012001|
|        5345|   -6.207770|   -8.230133|    0.824244|    0.012001|
|        5346|   -6.209448|   -8.237872|    0.824244|    0.012002|
|        5347|   -6.210961|   -8.245585|    0.824244|    0.012002|
|        5348|   -6.212349|   -8.253267|    0.824244|    0.012002|
|        5349|   -6.213657|   -8.260923|    0.824244|    0.012002|
|        5350|   -6.214929|   -8.268554|    0.824244|    0.012002|
|        5351|   -6.216212|   -8.276163|    0.824244|    0.012002|
|        5352|   -6.217549|   -8.283753|    0.824244|    0.012002|
|        5353|   -6.218985|   -8.291330|    0.824244|    0.012002|
|        5354|   -6.220558|   -8.298899|    0.824244|    0.012002|
|        5355|   -6.222307|   -8.306465|    0.824244|    0.012002|
|        5356|   -6.224263|   -8.314031|    0.824244|    0.012002|
|        5357|   -6.226457|   -8.321601|    0.824244|    0.012002|
|        5358|   -6.228911|   -8.329178|    0.824244|    0.012002|
|        5359|   -6.231647|   -8.336764|    0.824245|    0.012002|
|        5360|   -6.234678|   -8.344361|    0.824245|    0.012002|
|        5361|   -6.238014|   -8.351968|    0.824244|    0.012002|
|        5362|   -6.241661|   -8.359587|    0.824244|    0.012002|
|        5363|   -6.245617|   -8.367216|    0.824244|    0.012002|
|        5364|   -6.249879|   -8.374866|    0.824244|    0.012002|
|        5365|   -6.254435|   -8.382534|    0.824244|    0.012002|
|        5366|   -6.259271|   -8.390206|    0.824244|    0.012002|
|        5367|   -6.264366|   -8.397878|    0.824244|    0.012002|
|        5368|   -6.269696|   -8.405550|    0.824244|    0.012002|
|        5369|   -6.275231|   -8.413220|    0.824244|    0.012002|
|        5370|   -6.280938|   -8.420877|    0.824244|    0.012002|
|        5371|   -6.286778|   -8.428511|    0.824244|    0.012002|
|        5372|   -6.292712|   -8.436128|    0.824244|    0.012002|
|        5373|   -6.298693|   -8.443718|    0.824244|    0.012002|
|        5374|   -6.304675|   -8.451273|    0.824244|    0.012002|
|        5375|   -6.310610|   -8.458784|    0.824244|    0.012002|
|        5376|   -6.316449|   -8.466244|    0.824244|    0.012002|
|        5377|   -6.322145|   -8.473642|    0.824244|    0.012002|
|        5378|   -6.327651|   -8.480969|    0.824244|    0.012002|
|        5379|   -6.332923|   -8.488216|    0.824244|    0.012001|
|        5380|   -6.337923|   -8.495380|    0.824244|    0.012001|
|        5381|   -6.342615|   -8.502465|    0.824244|    0.012001|
|        5382|   -6.346972|   -8.509456|    0.824244|    0.012001|
|        5383|   -6.350969|   -8.516343|    0.824244|    0.012001|
|        5384|   -6.354596|   -8.523120|    0.824244|    0.012001|
|        5385|   -6.357846|   -8.529781|    0.824244|    0.012001|
|        5386|   -6.360719|   -8.536320|    0.824244|    0.012001|
|        5387|   -6.363221|   -8.542732|    0.824244|    0.012001|
|        5388|   -6.365363|   -8.549014|    0.824244|    0.012001|
|        5389|   -6.367165|   -8.555162|    0.824244|    0.012001|
|        5390|   -6.368648|   -8.561170|    0.824244|    0.012001|
|        5391|   -6.369837|   -8.567034|    0.824244|    0.012000|
|        5392|   -6.370758|   -8.572751|    0.824244|    0.012000|
|        5393|   -6.371440|   -8.578316|    0.824244|    0.012000|
|        5394|   -6.371909|   -8.583723|    0.824244|    0.012000|
|        5395|   -6.372190|   -8.588965|    0.824244|    0.012000|
|        5396|   -6.372308|   -8.594036|    0.824244|    0.012000|
|        5397|   -6.372284|   -8.598925|    0.824244|    0.012000|
|        5398|   -6.372139|   -8.603621|    0.824244|    0.012000|
|        5399|   -6.371888|   -8.608114|    0.824244|    0.012000|
|        5400|   -6.371546|   -8.612394|    0.824244|    0.011999|
|        5401|   -6.371126|   -8.616453|    0.824244|    0.011999|
|        5402|   -6.370636|   -8.620288|    0.824245|    0.011999|
|        5403|   -6.370084|   -8.623893|    0.824245|    0.011999|
|        5404|   -6.369476|   -8.627271|    0.824245|    0.011999|
|        5405|   -6.368816|   -8.630423|    0.824245|    0.011999|
|        5406|   -6.368108|   -8.633358|    0.824245|    0.011999|
|        5407|   -6.367355|   -8.636085|    0.824245|    0.011999|
|        5408|   -6.366557|   -8.638617|    0.824245|    0.011999|
|        5409|   -6.365718|   -8.640972|    0.824245|    0.011999|
|        5410|   -6.364838|   -8.643169|    0.824246|    0.011999|
|        5411|   -6.363920|   -8.645226|    0.824246|    0.011998|
|        5412|   -6.362966|   -8.647167|    0.824246|    0.011998|
|        5413|   -6.361979|   -8.649014|    0.824246|    0.011998|
|        5414|   -6.360962|   -8.650788|    0.824246|    0.011998|
|        5415|   -6.359919|   -8.652513|    0.824246|    0.011998|
|        5416|   -6.358856|   -8.654208|    0.824246|    0.011998|
|        5417|   -6.357777|   -8.655891|    0.824246|    0.011998|
|        5418|   -6.356689|   -8.657579|    0.824246|    0.011998|
|        5419|   -6.355599|   -8.659285|    0.824246|    0.011998|
|        5420|   -6.354514|   -8.661015|    0.824247|    0.011998|
|        5421|   -6.353444|   -8.662774|    0.824247|    0.011998|
|        5422|   -6.352397|   -8.664565|    0.824247|    0.011998|
|        5423|   -6.351383|   -8.666387|    0.824247|    0.011998|
|        5424|   -6.350414|   -8.668237|    0.824247|    0.011998|
|        5425|   -6.349502|   -8.670107|    0.824247|    0.011998|
|        5426|   -6.348658|   -8.671990|    0.824247|    0.011998|
|        5427|   -6.347895|   -8.673874|    0.824247|    0.011997|
|        5428|   -6.347229|   -8.675747|    0.824247|    0.011997|
|        5429|   -6.346672|   -8.677598|    0.824247|    0.011997|
|        5430|   -6.346240|   -8.679414|    0.824247|    0.011997|
|        5431|   -6.345949|   -8.681182|    0.824247|    0.011997|
|        5432|   -6.345812|   -8.682892|    0.824247|    0.011997|
|        5433|   -6.345847|   -8.684535|    0.824247|    0.011997|
|        5434|   -6.346068|   -8.686104|    0.824247|    0.011997|
|        5435|   -6.346490|   -8.687594|    0.824247|    0.011997|
|        5436|   -6.347129|   -8.689002|    0.824248|    0.011997|
|        5437|   -6.347997|   -8.690330|    0.824248|    0.011998|
|        5438|   -6.349107|   -8.691578|    0.824248|    0.011998|
|        5439|   -6.350471|   -8.692751|    0.824248|    0.011998|
|        5440|   -6.352100|   -8.693856|    0.824248|    0.011998|
|        5441|   -6.354001|   -8.694901|    0.824248|    0.011998|
|        5442|   -6.356181|   -8.695893|    0.824248|    0.011998|
|        5443|   -6.358644|   -8.696843|    0.824248|    0.011998|
|        5444|   -6.361393|   -8.697759|    0.824248|    0.011998|
|        5445|   -6.364427|   -8.698652|    0.824248|    0.011998|
|        5446|   -6.367742|   -8.699529|    0.824248|    0.011998|
|        5447|   -6.371332|   -8.700398|    0.824248|    0.011998|
|        5448|   -6.375187|   -8.701266|    0.824248|    0.011998|
|        5449|   -6.379294|   -8.702137|    0.824247|    0.011998|
|        5450|   -6.383637|   -8.703015|    0.824247|    0.011998|
|        5451|   -6.388195|   -8.703907|    0.824247|    0.011998|
|        5452|   -6.392945|   -8.704814|    0.824247|    0.011998|
|        5453|   -6.397859|   -8.705738|    0.824247|    0.011998|
|        5454|   -6.402907|   -8.706674|    0.824247|    0.011998|
|        5455|   -6.408053|   -8.707615|    0.824247|    0.011999|
|        5456|   -6.413259|   -8.708554|    0.824247|    0.011999|
|        5457|   -6.418486|   -8.709481|    0.824247|    0.011999|
|        5458|   -6.423690|   -8.710386|    0.824247|    0.011999|
|        5459|   -6.428827|   -8.711260|    0.824247|    0.011999|
|        5460|   -6.433849|   -8.712092|    0.824247|    0.011999|
|        5461|   -6.438711|   -8.712874|    0.824247|    0.011999|
|        5462|   -6.443368|   -8.713597|    0.824247|    0.011999|
|        5463|   -6.447775|   -8.714253|    0.824247|    0.011999|
|        5464|   -6.451891|   -8.714835|    0.824246|    0.011999|
|        5465|   -6.455679|   -8.715338|    0.824246|    0.011999|
|        5466|   -6.459106|   -8.715756|    0.824246|    0.011999|
|        5467|   -6.462147|   -8.716086|    0.824246|    0.012000|
|        5468|   -6.464781|   -8.716326|    0.824246|    0.012000|
|        5469|   -6.466994|   -8.716472|    0.824246|    0.012000|
|        5470|   -6.468783|   -8.716526|    0.824246|    0.012000|
|        5471|   -6.470149|   -8.716486|    0.824246|    0.012000|
|        5472|   -6.471102|   -8.716355|    0.824245|    0.012000|
|        5473|   -6.471659|   -8.716134|    0.824245|    0.012000|
|        5474|   -6.471841|   -8.715826|    0.824245|    0.012000|
|        5475|   -6.471677|   -8.715434|    0.824245|    0.012000|
|        5476|   -6.471199|   -8.714961|    0.824245|    0.012000|
|        5477|   -6.470444|   -8.714412|    0.824245|    0.012000|
|        5478|   -6.469449|   -8.713790|    0.824244|    0.012000|
|        5479|   -6.468254|   -8.713101|    0.824244|    0.012000|
|        5480|   -6.466899|   -8.712350|    0.824244|    0.012000|
|        5481|   -6.465424|   -8.711543|    0.824244|    0.012000|
|        5482|   -6.463869|   -8.710684|    0.824244|    0.012000|
|        5483|   -6.462269|   -8.709781|    0.824244|    0.012000|
|        5484|   -6.460660|   -8.708839|    0.824243|    0.012000|
|        5485|   -6.459075|   -8.707866|    0.824243|    0.012000|
|        5486|   -6.457545|   -8.706868|    0.824243|    0.012000|
|        5487|   -6.456096|   -8.705853|    0.824243|    0.012000|
|        5488|   -6.454754|   -8.704829|    0.824243|    0.012000|
|        5489|   -6.453540|   -8.703804|    0.824243|    0.012000|
|        5490|   -6.452475|   -8.702786|    0.824243|    0.012000|
|        5491|   -6.451573|   -8.701783|    0.824242|    0.012000|
|        5492|   -6.450849|   -8.700805|    0.824242|    0.012000|
|        5493|   -6.450316|   -8.699861|    0.824242|    0.012000|
|        5494|   -6.449982|   -8.698959|    0.824242|    0.012000|
|        5495|   -6.449854|   -8.698110|    0.824242|    0.012000|
|        5496|   -6.449938|   -8.697322|    0.824242|    0.012000|
|        5497|   -6.450239|   -8.696603|    0.824242|    0.012000|
|        5498|   -6.450757|   -8.695964|    0.824241|    0.012000|
|        5499|   -6.451495|   -8.695411|    0.824242|    0.011986|
+-----------------------------------------------------------------------+
|Fixed CL Mode (Finite Difference)       |Value                         |
+-----------------------------------------------------------------------+
|Delta CL / Delta AoA                    |0.24132                       |
|Delta CD / Delta CL                     |0.0193007                     |
|Delta CMz / Delta CL                    |0.00558367                    |
+-----------------------------------------------------------------------+
Writing Flow Meta-Data file: flow.meta

----------------------------- Solver Exit -------------------------------

Maximum number of iterations reached (ITER = 5500) before convergence.
+-----------------------------------------------------------------------+
|      Convergence Field     |     Value    |   Criterion  |  Converged |
+-----------------------------------------------------------------------+
|                    rms[Rho]|      -6.45149|         < -12|          No|
+-----------------------------------------------------------------------+
-------------------------------------------------------------------------

--------------------------- Finalizing Solver ---------------------------
Deleted CNumerics container.
Deleted CIntegration container.
Deleted CSolver container.
Deleted CIteration container.
Deleted CInterface container.
Deleted CGeometry container.
Deleted CFreeFormDefBox class.
Deleted CSurfaceMovement class.
Deleted CVolumetricMovement class.
Deleted CConfig container.
Deleted nInst container.
Deleted COutput class.
-------------------------------------------------------------------------

------------------------- Exit Success (SU2_CFD) ------------------------


-------------------------------------------------------------------------
|    ___ _   _ ___                                                      |
|   / __| | | |_  )   Release 8.0.0 "Harrier"                           |
|   \__ \ |_| |/ /                                                      |
|   |___/\___//___|   Suite (Solution Exporting Code)                   |
|                                                                       |
-------------------------------------------------------------------------
| SU2 Project Website: https://su2code.github.io                        |
|                                                                       |
| The SU2 Project is maintained by the SU2 Foundation                   |
| (http://su2foundation.org)                                            |
-------------------------------------------------------------------------
| Copyright 2012-2023, SU2 Contributors                                 |
|                                                                       |
| SU2 is free software; you can redistribute it and/or                  |
| modify it under the terms of the GNU Lesser General Public            |
| License as published by the Free Software Foundation; either          |
| version 2.1 of the License, or (at your option) any later version.    |
|                                                                       |
| SU2 is distributed in the hope that it will be useful,                |
| but WITHOUT ANY WARRANTY; without even the implied warranty of        |
| MERCHANTABILITY or FITNESS FOR A PARTICULAR PURPOSE. See the GNU      |
| Lesser General Public License for more details.                       |
|                                                                       |
| You should have received a copy of the GNU Lesser General Public      |
| License along with SU2. If not, see <http://www.gnu.org/licenses/>.   |
-------------------------------------------------------------------------

----------------- Physical Case Definition ( Zone 0 ) -------------------
Input mesh file name: mesh_RAE2822_turb_deform.su2

-------------------- Output Information ( Zone 0 ) ----------------------
The tabular file format is CSV (.csv).
Flow variables file name: flow.

------------- Config File Boundary Information ( Zone 0 ) ---------------
+-----------------------------------------------------------------------+
|                        Marker Type|                        Marker Name|
+-----------------------------------------------------------------------+
|                          Far-field|                           FARFIELD|
+-----------------------------------------------------------------------+
|                     Heat flux wall|                            AIRFOIL|
+-----------------------------------------------------------------------+
Two dimensional problem.
13937 grid points before partitioning.
22842 volume elements before partitioning.
2 surface markers.
192 boundary elements in index 0 (Marker = AIRFOIL).
40 boundary elements in index 1 (Marker = FARFIELD).
Executing the partitioning functions.
Building the graph adjacency structure.
Calling ParMETIS... graph partitioning complete (831 edge cuts).
Distributing ParMETIS coloring.
Rebalancing vertices.
Rebalancing volume element connectivity.
Rebalancing markers and surface elements.
14875 vertices including ghost points. 
23674 interior elements including halo cells. 
18780 triangles.
4894 quadrilaterals.
Establishing MPI communication patterns.
Identify vertices.
Storing a mapping from global to local point index.

------------------------- Solution Postprocessing -----------------------
Reading and storing the solution from restart_flow.
Volume output fields: COORDINATES, SOLUTION
  Info: Ignoring the following screen output fields:
  RMS_DENSITY, RMS_NU_TILDE, LIFT, DRAG
Screen output fields: INNER_ITER
  Info: Ignoring the following history output groups:
  RMS_RES, AERO_COEFF
History output group(s): ITER
Warning: No (valid) fields chosen for convergence monitoring. Convergence monitoring inactive.
Warning: No (valid) fields chosen for time convergence monitoring. Time convergence monitoring inactive.
|Paraview                           |flow.vtu                           |
|Paraview surface                   |surface_flow.vtu                   |
|CSV file                           |surface_flow.csv                   |

------------------------- Finalize Solver -------------------------
Deleted CGeometry container.
Deleted CSolver class.
Deleted CConfig container.
Deleted COutput class.

Completed in 0.015011 seconds on 6 cores.

------------------------- Exit Success (SU2_SOL) ------------------------

