
-------------------------------------------------------------------------
|    ___ _   _ ___                                                      |
|   / __| | | |_  )   Release 8.0.0 "Harrier"                           |
|   \__ \ |_| |/ /                                                      |
|   |___/\___//___|   Suite (Computational Fluid Dynamics Code)         |
|                                                                       |
-------------------------------------------------------------------------
| SU2 Project Website: https://su2code.github.io                        |
|                                                                       |
| The SU2 Project is maintained by the SU2 Foundation                   |
| (http://su2foundation.org)                                            |
-------------------------------------------------------------------------
| Copyright 2012-2023, SU2 Contributors                                 |
|                                                                       |
| SU2 is free software; you can redistribute it and/or                  |
| modify it under the terms of the GNU Lesser General Public            |
| License as published by the Free Software Foundation; either          |
| version 2.1 of the License, or (at your option) any later version.    |
|                                                                       |
| SU2 is distributed in the hope that it will be useful,                |
| but WITHOUT ANY WARRANTY; without even the implied warranty of        |
| MERCHANTABILITY or FITNESS FOR A PARTICULAR PURPOSE. See the GNU      |
| Lesser General Public License for more details.                       |
|                                                                       |
| You should have received a copy of the GNU Lesser General Public      |
| License along with SU2. If not, see <http://www.gnu.org/licenses/>.   |
-------------------------------------------------------------------------

Parsing config file for zone 0

----------------- Physical Case Definition ( Zone 0 ) -------------------
Compressible RANS equations.
Turbulence model: Menter's k-omega SST-2003m with no production modification.
Hybrid RANS/LES: No Hybrid RANS/LES
Mach number: 0.729.
Angle of attack (AoA): 2 deg, and angle of sideslip (AoS): 0 deg.
Reynolds number: 6.5e+06. Reference length 1.
Reading and writing binary SU2 native restart files.
Read flow solution from: restart_flow.dat.
Dimensional simulation.
The reference area is 1 m^2.
The semi-span will be computed using the max y(3D) value.
The reference length is 1 m.
Surface(s) where the force coefficients are evaluated and 
their reference origin for moment computation: 
   - Airfoil (0.25, 0, 0).
   - Flap (0.25, 0, 0).
   - Slat (0.25, 0, 0) m.
Surface(s) plotted in the output file: Airfoil, Flap, Slat.
Input mesh file name: Mesh.su2

--------------- Space Numerical Integration ( Zone 0 ) ------------------
Roe (with entropy fix = 0.001) solver for the flow inviscid terms.
Standard Roe without low-dissipation function.
Second order integration in space, with slope limiter.
Venkatakrishnan slope-limiting method, with constant: 0.03.
The reference element size is: 1. 
Scalar upwind solver for the turbulence model.
First order integration in space.
Average of gradients with correction (viscous flow terms).
Average of gradients with correction (viscous turbulence terms).
Gradient for upwind reconstruction: inverse-distance weighted Least-Squares.
Gradient for viscous and source terms: inverse-distance weighted Least-Squares.

--------------- Time Numerical Integration  ( Zone 0 ) ------------------
Local time stepping (steady state simulation).
Euler implicit method for the flow equations.
FGMRES is used for solving the linear system.
Using a ILU(0) preconditioning.
Convergence criteria of the linear solver: 1e-06.
Max number of linear iterations: 10.
CFL adaptation. Factor down: 0.5, factor up: 1.1,
                lower limit: 1, upper limit: 1000,
                acceptable linear residual: 0.001.
Courant-Friedrichs-Lewy number:        2
Euler implicit time integration for the turbulence model.

------------------ Convergence Criteria  ( Zone 0 ) ---------------------
Maximum number of solver subiterations: 500.
Begin convergence monitoring at iteration 10.
Residual minimum value: 1e-14.
Cauchy series min. value: 1e-06.
Number of Cauchy elements: 100.
Begin windowed time average at iteration 0.

-------------------- Output Information ( Zone 0 ) ----------------------
File writing frequency: 
+------------------------------------+
|                     File| Frequency|
+------------------------------------+
|                  RESTART|       500|
|                 PARAVIEW|       500|
|         SURFACE_PARAVIEW|       500|
+------------------------------------+
Writing the convergence history file every 1 inner iterations.
Writing the screen convergence history every 1 inner iterations.
The tabular file format is CSV (.csv).
Convergence history file name: historySecond.
Forces breakdown file name: forces_breakdown.dat.
Surface file name: surface_flow.
Volume file name: flow.
Restart file name: restart_flow.dat.

------------- Config File Boundary Information ( Zone 0 ) ---------------
+-----------------------------------------------------------------------+
|                        Marker Type|                        Marker Name|
+-----------------------------------------------------------------------+
|                          Far-field|                           Farfield|
+-----------------------------------------------------------------------+
|                     Heat flux wall|                            Airfoil|
|                                   |                               Flap|
|                                   |                               Slat|
+-----------------------------------------------------------------------+

-------------------- Output Preprocessing ( Zone 0 ) --------------------

WARNING: SURFACE_PRESSURE_DROP can only be computed for at least 2 surfaces (outlet, inlet, ...)

Screen output fields: INNER_ITER, WALL_TIME, RMS_DENSITY, LIFT, DRAG, MIN_CFL, MAX_CFL, AVG_CFL
  Info: Ignoring the following history output groups:
  RESIDUALS, CFL
History output group(s): INNER_ITER, LIFT, DRAG
Convergence field(s): LIFT
Warning: No (valid) fields chosen for time convergence monitoring. Time convergence monitoring inactive.
  Info: Ignoring the following volume output fields/groups:
  RESIDUALS
Volume output fields: SOLUTION, PRIMITIVE, GRADIENTS, HESSIANS, EIGENVALUES, COORDINATES

------------------- Geometry Preprocessing ( Zone 0 ) -------------------
Two dimensional problem.
90618 grid points before partitioning.
92672 volume elements before partitioning.
4 surface markers.
738 boundary elements in index 0 (Marker = Airfoil).
158 boundary elements in index 1 (Marker = Farfield).
315 boundary elements in index 2 (Marker = Flap).
278 boundary elements in index 3 (Marker = Slat).
Executing the partitioning functions.
Building the graph adjacency structure.
Calling ParMETIS... graph partitioning complete (943 edge cuts).
Distributing ParMETIS coloring.
Rebalancing vertices.
Rebalancing volume element connectivity.
Rebalancing markers and surface elements.
92475 vertices including ghost points. 
93616 interior elements including halo cells. 
5636 triangles.
87980 quadrilaterals.
Establishing MPI communication patterns.
Setting point connectivity.
Renumbering points (Reverse Cuthill McKee Ordering).
Recomputing point connectivity.
Setting element connectivity.
Checking the numerical grid orientation.
All volume elements are correctly orientend.
All surface elements are correctly orientend.
Identifying edges and vertices.
Setting the control volume structure.
Area of the computational grid: 31407.9.
Searching for the closest normal neighbors to the surfaces.
Storing a mapping from global to local point index.
Compute the surface curvature.
Max K: 19556. Mean K: 81.7653. Standard deviation K: 970.708.
Checking for periodicity.
Computing mesh quality statistics for the dual control volumes.
+--------------------------------------------------------------+
|           Mesh Quality Metric|        Minimum|        Maximum|
+--------------------------------------------------------------+
|    Orthogonality Angle (deg.)|        54.9935|             90|
|     CV Face Area Aspect Ratio|        1.00105|        2085.42|
|           CV Sub-Volume Ratio|        1.00001|        18.2889|
+--------------------------------------------------------------+
Finding max control volume width.
Communicating number of neighbors.
Wetted area = 2.56903 m.
Area projection in the x-plane = 0.364693 m, y-plane = 1.14805 m.
Max. coordinate in the x-direction = 1.06769 m, y-direction = 0.0602558 m.
Min. coordinate in the x-direction = -0.0559901 m, y-direction = -0.147724 m.
Computing wall distances.

-------------------- Solver Preprocessing ( Zone 0 ) --------------------
Viscous flow: Computing pressure using the ideal gas law
based on the free-stream temperature and a density computed
from the Reynolds number.
Force coefficients computed using free-stream values.

-- Models:
+------------------------------------------------------------------------------+
|          Viscosity Model|        Conductivity Model|              Fluid Model|
+------------------------------------------------------------------------------+
|               SUTHERLAND|          CONSTANT_PRANDTL|             STANDARD_AIR|
+------------------------------------------------------------------------------+
-- Fluid properties:
+------------------------------------------------------------------------------+
|                  Name|    Dim. value|    Ref. value|      Unit|Non-dim. value|
+------------------------------------------------------------------------------+
|        Ref. Viscosity|     1.716e-05|             1|   N.s/m^2|     1.716e-05|
|      Sutherland Temp.|        273.15|             1|         K|        273.15|
|     Sutherland Const.|         110.4|             1|         K|         110.4|
+------------------------------------------------------------------------------+
|        Prandtl (Lam.)|             -|             -|         -|          0.72|
|       Prandtl (Turb.)|             -|             -|         -|           0.9|
+------------------------------------------------------------------------------+
|          Gas Constant|       287.058|             1|  N.m/kg.K|       287.058|
|      Spec. Heat Ratio|             -|             -|         -|           1.4|
+------------------------------------------------------------------------------+
-- Initial and free-stream conditions:
+------------------------------------------------------------------------------+
|                  Name|    Dim. value|    Ref. value|      Unit|Non-dim. value|
+------------------------------------------------------------------------------+
|       Static Pressure|       38779.2|             1|        Pa|       38779.2|
|               Density|      0.468824|             1|    kg/m^3|      0.468824|
|           Temperature|        288.15|             1|         K|        288.15|
|          Total Energy|        237791|             1|   m^2/s^2|        237791|
|            Velocity-X|       247.925|             1|       m/s|       247.925|
|            Velocity-Y|       8.65775|             1|       m/s|       8.65775|
|    Velocity Magnitude|       248.077|             1|       m/s|       248.077|
+------------------------------------------------------------------------------+
|             Viscosity|    1.7893e-05|             1|   N.s/m^2|    1.7893e-05|
|          Conductivity|             -|             1|   W/m^2.K|             -|
|     Turb. Kin. Energy|       230.782|             1|   m^2/s^2|       230.782|
|     Spec. Dissipation|        604687|             1|       1/s|        604687|
+------------------------------------------------------------------------------+
|           Mach Number|             -|             -|         -|         0.729|
|       Reynolds Number|             -|             -|         -|       6.5e+06|
+------------------------------------------------------------------------------+
Initialize Jacobian structure (Navier-Stokes). MG level: 0.
Initialize Jacobian structure (SST model).

------------------- Numerics Preprocessing ( Zone 0 ) -------------------

----------------- Integration Preprocessing ( Zone 0 ) ------------------

------------------- Iteration Preprocessing ( Zone 0 ) ------------------
Euler/Navier-Stokes/RANS fluid iteration.

------------------------------ Begin Solver -----------------------------

Simulation Run using the Single-zone Driver
WARNING: SU2 was not compiled for an AVX-capable architecture. Performance could be better,
         see https://su2code.github.io/docs_v7/Build-SU2-Linux-MacOS/#compiler-optimizations
+-------------------------------------------------------------------------------------------------------+
|  Inner_Iter|   Time(sec)|    rms[Rho]|          CL|          CD|     Min CFL|     Max CFL|     Avg CFL|
+-------------------------------------------------------------------------------------------------------+
|           0|  1.6069e-01|   -3.044771|    1.880433|    0.257897|  2.2000e+00|  2.2000e+00|  2.2000e+00|
|           1|  1.5868e-01|   -3.049972|    1.880430|    0.257892|  2.4200e+00|  2.4200e+00|  2.4200e+00|
|           2|  1.6245e-01|   -3.055949|    1.880427|    0.257888|  2.6620e+00|  2.6620e+00|  2.6620e+00|
|           3|  1.6048e-01|   -3.063243|    1.880422|    0.257883|  2.9282e+00|  2.9282e+00|  2.9282e+00|
|           4|  2.0881e-01|   -3.072017|    1.880417|    0.257878|  3.2210e+00|  3.2210e+00|  3.2210e+00|
|           5|  2.5669e-01|   -3.082347|    1.880411|    0.257872|  3.5431e+00|  3.5431e+00|  3.5431e+00|
|           6|  2.6306e-01|   -3.095141|    1.880404|    0.257865|  3.8974e+00|  3.8974e+00|  3.8974e+00|
|           7|  2.5172e-01|   -3.108056|    1.880396|    0.257856|  4.2872e+00|  4.2872e+00|  4.2872e+00|
|           8|  2.4462e-01|   -3.122499|    1.880388|    0.257847|  4.7159e+00|  4.7159e+00|  4.7159e+00|
|           9|  2.3715e-01|   -3.137832|    1.880378|    0.257836|  5.1875e+00|  5.1875e+00|  5.1875e+00|
|          10|  2.3102e-01|   -3.154807|    1.880368|    0.257823|  5.7062e+00|  5.7062e+00|  5.7062e+00|
|          11|  2.3601e-01|   -3.173315|    1.880355|    0.257810|  6.2769e+00|  6.2769e+00|  6.2769e+00|
|          12|  2.6380e-01|   -3.193629|    1.880339|    0.257798|  6.9045e+00|  6.9045e+00|  6.9045e+00|
|          13|  2.6051e-01|   -3.214905|    1.880320|    0.257788|  7.5950e+00|  7.5950e+00|  7.5950e+00|
|          14|  2.5525e-01|   -3.237230|    1.880296|    0.257781|  8.3545e+00|  8.3545e+00|  8.3545e+00|
|          15|  2.5235e-01|   -3.261554|    1.880266|    0.257779|  9.1899e+00|  9.1899e+00|  9.1899e+00|
|          16|  2.4995e-01|   -3.286932|    1.880229|    0.257784|  1.0109e+01|  1.0109e+01|  1.0109e+01|
|          17|  2.5568e-01|   -3.313326|    1.880183|    0.257793|  1.1120e+01|  1.1120e+01|  1.1120e+01|
|          18|  2.5865e-01|   -3.335678|    1.880128|    0.257806|  1.2232e+01|  1.2232e+01|  1.2232e+01|
|          19|  2.5553e-01|   -3.371099|    1.880063|    0.257817|  1.3455e+01|  1.3455e+01|  1.3455e+01|
|          20|  2.5286e-01|   -3.405011|    1.879988|    0.257820|  1.4800e+01|  1.4800e+01|  1.4800e+01|
|          21|  2.5243e-01|   -3.443560|    1.879902|    0.257806|  1.6281e+01|  1.6281e+01|  1.6281e+01|
|          22|  2.5995e-01|   -3.483151|    1.879803|    0.257769|  1.7909e+01|  1.7909e+01|  1.7909e+01|
|          23|  2.5812e-01|   -3.526139|    1.879691|    0.257706|  1.9699e+01|  1.9699e+01|  1.9699e+01|
|          24|  2.5754e-01|   -3.576676|    1.879567|    0.257620|  2.1669e+01|  2.1669e+01|  2.1669e+01|
|          25|  2.5543e-01|   -3.626309|    1.879438|    0.257522|  2.3836e+01|  2.3836e+01|  2.3836e+01|
|          26|  2.6513e-01|   -3.645286|    1.879319|    0.257429|  2.6220e+01|  2.6220e+01|  2.6220e+01|
|          27|  2.7629e-01|   -3.730188|    1.879228|    0.257357|  2.8842e+01|  2.8842e+01|  2.8842e+01|
|          28|  2.7466e-01|   -3.748242|    1.879180|    0.257308|  3.1726e+01|  3.1726e+01|  3.1726e+01|
|          29|  2.7247e-01|   -3.789871|    1.879173|    0.257274|  3.4899e+01|  3.4899e+01|  3.4899e+01|
|          30|  2.7150e-01|   -3.806081|    1.879185|    0.257233|  3.8389e+01|  3.8389e+01|  3.8389e+01|
|          31|  2.6970e-01|   -3.837390|    1.879188|    0.257167|  4.2228e+01|  4.2228e+01|  4.2228e+01|
|          32|  2.7830e-01|   -3.848425|    1.879156|    0.257070|  4.2228e+01|  4.2228e+01|  4.2228e+01|
|          33|  2.7758e-01|   -3.865926|    1.879090|    0.256962|  4.2228e+01|  4.2228e+01|  4.2228e+01|
|          34|  2.7632e-01|   -3.864795|    1.878999|    0.256852|  4.6450e+01|  4.6450e+01|  4.6450e+01|
|          35|  2.7448e-01|   -3.874081|    1.878877|    0.256739|  2.3225e+01|  2.3225e+01|  2.3225e+01|
|          36|  2.7255e-01|   -3.871468|    1.878810|    0.256686|  2.5548e+01|  2.5548e+01|  2.5548e+01|
|          37|  2.8018e-01|   -3.919962|    1.878733|    0.256630|  2.8102e+01|  2.8102e+01|  2.8102e+01|
|          38|  2.7899e-01|   -3.946144|    1.878643|    0.256570|  3.0913e+01|  3.0913e+01|  3.0913e+01|
|          39|  2.7803e-01|   -3.942800|    1.878536|    0.256507|  3.4004e+01|  3.4004e+01|  3.4004e+01|
|          40|  2.7679e-01|   -3.934322|    1.878408|    0.256442|  3.7404e+01|  3.7404e+01|  3.7404e+01|
|          41|  2.7518e-01|   -3.910991|    1.878257|    0.256374|  4.1145e+01|  4.1145e+01|  4.1145e+01|
|          42|  2.7760e-01|   -3.912570|    1.878074|    0.256306|  4.1145e+01|  4.1145e+01|  4.1145e+01|
|          43|  2.8029e-01|   -3.890581|    1.877879|    0.256248|  4.1145e+01|  4.1145e+01|  4.1145e+01|
|          44|  2.7866e-01|   -3.938443|    1.877672|    0.256203|  4.1145e+01|  4.1145e+01|  4.1145e+01|
|          45|  2.7739e-01|   -3.912206|    1.877457|    0.256173|  4.1145e+01|  4.1145e+01|  4.1145e+01|
|          46|  2.7855e-01|   -3.923455|    1.877239|    0.256157|  4.1145e+01|  4.1145e+01|  4.1145e+01|
|          47|  2.8140e-01|   -3.936953|    1.877021|    0.256155|  4.1145e+01|  4.1145e+01|  4.1145e+01|
|          48|  2.7987e-01|   -3.937001|    1.876805|    0.256166|  4.1145e+01|  4.1145e+01|  4.1145e+01|
|          49|  2.7844e-01|   -3.932340|    1.876597|    0.256186|  4.5259e+01|  4.5259e+01|  4.5259e+01|
|          50|  2.7707e-01|   -3.932749|    1.876381|    0.256213|  2.2630e+01|  2.2630e+01|  2.2630e+01|
|          51|  2.7558e-01|   -3.925217|    1.876274|    0.256228|  2.4893e+01|  2.4893e+01|  2.4893e+01|
|          52|  2.7421e-01|   -3.947486|    1.876160|    0.256245|  2.7382e+01|  2.7382e+01|  2.7382e+01|
|          53|  2.7764e-01|   -3.970218|    1.876041|    0.256262|  3.0120e+01|  3.0120e+01|  3.0120e+01|
|          54|  2.7827e-01|   -3.950783|    1.875916|    0.256278|  3.3132e+01|  3.3132e+01|  3.3132e+01|
|          55|  2.7701e-01|   -3.926464|    1.875787|    0.256291|  3.6445e+01|  3.6445e+01|  3.6445e+01|
|          56|  2.7583e-01|   -3.895337|    1.875652|    0.256298|  4.0090e+01|  4.0090e+01|  4.0090e+01|
|          57|  2.7792e-01|   -3.865204|    1.875513|    0.256295|  4.4099e+01|  4.4099e+01|  4.4099e+01|
|          58|  2.7895e-01|   -3.832163|    1.875368|    0.256278|  4.4099e+01|  4.4099e+01|  4.4099e+01|
|          59|  2.7774e-01|   -3.783054|    1.875231|    0.256248|  4.4099e+01|  4.4099e+01|  4.4099e+01|
|          60|  2.7662e-01|   -3.737747|    1.875100|    0.256209|  4.4099e+01|  4.4099e+01|  4.4099e+01|
|          61|  2.7555e-01|   -3.716221|    1.874975|    0.256160|  4.4099e+01|  4.4099e+01|  4.4099e+01|
|          62|  2.7451e-01|   -3.683036|    1.874852|    0.256106|  4.8509e+01|  4.8509e+01|  4.8509e+01|
|          63|  2.7697e-01|   -3.646452|    1.874716|    0.256043|  2.4254e+01|  2.4254e+01|  2.4254e+01|
|          64|  2.7578e-01|   -3.584226|    1.874649|    0.256012|  2.6680e+01|  2.6680e+01|  2.6680e+01|
|          65|  2.7467e-01|   -3.564952|    1.874572|    0.255977|  2.9348e+01|  2.9348e+01|  2.9348e+01|
|          66|  2.7369e-01|   -3.554172|    1.874487|    0.255940|  3.2282e+01|  3.2282e+01|  3.2282e+01|
|          67|  2.7275e-01|   -3.527633|    1.874392|    0.255900|  3.5511e+01|  3.5511e+01|  3.5511e+01|
|          68|  2.7380e-01|   -3.492406|    1.874280|    0.255861|  3.9062e+01|  3.9062e+01|  3.9062e+01|
|          69|  2.7695e-01|   -3.473708|    1.874148|    0.255822|  4.2968e+01|  4.2968e+01|  4.2968e+01|
|          70|  2.7590e-01|   -3.423199|    1.873998|    0.255786|  4.7265e+01|  4.7265e+01|  4.7265e+01|
|          71|  2.7498e-01|   -3.414448|    1.873816|    0.255752|  5.1991e+01|  5.1991e+01|  5.1991e+01|
|          72|  2.7408e-01|   -3.352266|    1.873604|    0.255725|  5.7190e+01|  5.7190e+01|  5.7190e+01|
|          73|  2.7321e-01|   -3.322435|    1.873360|    0.255699|  5.7190e+01|  5.7190e+01|  5.7190e+01|
|          74|  2.7237e-01|   -3.246713|    1.873104|    0.255679|  5.7190e+01|  5.7190e+01|  5.7190e+01|
|          75|  2.7450e-01|   -3.201655|    1.872847|    0.255656|  6.2909e+01|  6.2909e+01|  6.2909e+01|
|          76|  2.7407e-01|   -3.138613|    1.872572|    0.255631|  6.2909e+01|  6.2909e+01|  6.2909e+01|
|          77|  2.7324e-01|   -3.099739|    1.872302|    0.255598|  6.9200e+01|  6.9200e+01|  6.9200e+01|
|          78|  2.7244e-01|   -3.034050|    1.872024|    0.255558|  3.4600e+01|  3.4600e+01|  3.4600e+01|
|          79|  2.7251e-01|   -3.041912|    1.871890|    0.255534|  3.8060e+01|  3.8060e+01|  3.8060e+01|
|          80|  2.7516e-01|   -3.053007|    1.871744|    0.255508|  4.1866e+01|  4.1866e+01|  4.1866e+01|
|          81|  2.7429e-01|   -3.082883|    1.871590|    0.255476|  4.6053e+01|  4.6053e+01|  4.6053e+01|
|          82|  2.7351e-01|   -3.080931|    1.871431|    0.255440|  5.0658e+01|  5.0658e+01|  5.0658e+01|
|          83|  2.7275e-01|   -3.111828|    1.871256|    0.255399|  5.5724e+01|  5.5724e+01|  5.5724e+01|
|          84|  2.7203e-01|   -3.108893|    1.871067|    0.255357|  6.1296e+01|  6.1296e+01|  6.1296e+01|
|          85|  2.7133e-01|   -3.121546|    1.870862|    0.255314|  6.1296e+01|  6.1296e+01|  6.1296e+01|
|          86|  2.7305e-01|   -3.110277|    1.870652|    0.255279|  6.1296e+01|  6.1296e+01|  6.1296e+01|
|          87|  2.7281e-01|   -3.122710|    1.870439|    0.255251|  6.1296e+01|  6.1296e+01|  6.1296e+01|
|          88|  2.7211e-01|   -3.141740|    1.870224|    0.255233|  6.1296e+01|  6.1296e+01|  6.1296e+01|
|          89|  2.7182e-01|   -3.192623|    1.870002|    0.255220|  3.0648e+01|  3.0648e+01|  3.0648e+01|
|          90|  2.7112e-01|   -3.358385|    1.869891|    0.255216|  3.3713e+01|  3.3713e+01|  3.3713e+01|
|          91|  2.7365e-01|   -3.478161|    1.869770|    0.255211|  3.7084e+01|  3.7084e+01|  3.7084e+01|
|          92|  2.7306e-01|   -3.520106|    1.869633|    0.255209|  4.0793e+01|  4.0793e+01|  4.0793e+01|
|          93|  2.7242e-01|   -3.518001|    1.869483|    0.255205|  4.4872e+01|  4.4872e+01|  4.4872e+01|
|          94|  2.7177e-01|   -3.506764|    1.869321|    0.255204|  4.9359e+01|  4.9359e+01|  4.9359e+01|
|          95|  2.7114e-01|   -3.496510|    1.869142|    0.255198|  4.9359e+01|  4.9359e+01|  4.9359e+01|
|          96|  2.7220e-01|   -3.484057|    1.868963|    0.255192|  4.9359e+01|  4.9359e+01|  4.9359e+01|
|          97|  2.7298e-01|   -3.498486|    1.868789|    0.255182|  4.9359e+01|  4.9359e+01|  4.9359e+01|
|          98|  2.7237e-01|   -3.481555|    1.868613|    0.255169|  4.9359e+01|  4.9359e+01|  4.9359e+01|
|          99|  2.7176e-01|   -3.467078|    1.868436|    0.255152|  4.9359e+01|  4.9359e+01|  4.9359e+01|
|         100|  2.7117e-01|   -3.465049|    1.868261|    0.255132|  4.9359e+01|  4.9359e+01|  4.9359e+01|
|         101|  2.7058e-01|   -3.429610|    1.868084|    0.255106|  4.9359e+01|  4.9359e+01|  4.9359e+01|
|         102|  2.7008e-01|   -3.445159|    1.867907|    0.255081|  4.9359e+01|  4.9359e+01|  4.9359e+01|
|         103|  2.6951e-01|   -3.395378|    1.867731|    0.255050|  5.4295e+01|  5.4295e+01|  5.4295e+01|
|         104|  2.6930e-01|   -3.374448|    1.867535|    0.255017|  2.7148e+01|  2.7148e+01|  2.7148e+01|
|         105|  2.7104e-01|   -3.330301|    1.867435|    0.255000|  2.9862e+01|  2.9862e+01|  2.9862e+01|
|         106|  2.7040e-01|   -3.318808|    1.867329|    0.254983|  3.2849e+01|  3.2849e+01|  3.2849e+01|
|         107|  2.6985e-01|   -3.296525|    1.867211|    0.254961|  3.6133e+01|  3.6133e+01|  3.6133e+01|
|         108|  2.6932e-01|   -3.225859|    1.867079|    0.254941|  3.9747e+01|  3.9747e+01|  3.9747e+01|
|         109|  2.6879e-01|   -3.175826|    1.866936|    0.254918|  4.3721e+01|  4.3721e+01|  4.3721e+01|
|         110|  2.6828e-01|   -3.104364|    1.866778|    0.254895|  4.8094e+01|  4.8094e+01|  4.8094e+01|
|         111|  2.6778e-01|   -3.074788|    1.866602|    0.254870|  5.2903e+01|  5.2903e+01|  5.2903e+01|
|         112|  2.6729e-01|   -3.022345|    1.866412|    0.254845|  5.8193e+01|  5.8193e+01|  5.8193e+01|
|         113|  2.6680e-01|   -3.054506|    1.866200|    0.254817|  5.8193e+01|  5.8193e+01|  5.8193e+01|
|         114|  2.6771e-01|   -3.015316|    1.865989|    0.254793|  5.8193e+01|  5.8193e+01|  5.8193e+01|
|         115|  2.6807e-01|   -3.268368|    1.865780|    0.254768|  2.9097e+01|  2.9097e+01|  2.9097e+01|
|         116|  2.6751e-01|   -3.304535|    1.865672|    0.254756|  3.2006e+01|  3.2006e+01|  3.2006e+01|
|         117|  2.6700e-01|   -3.333343|    1.865554|    0.254742|  3.5207e+01|  3.5207e+01|  3.5207e+01|
|         118|  2.6652e-01|   -3.285675|    1.865429|    0.254728|  3.8728e+01|  3.8728e+01|  3.8728e+01|
|         119|  2.6606e-01|   -3.282762|    1.865288|    0.254711|  4.2600e+01|  4.2600e+01|  4.2600e+01|
|         120|  2.6560e-01|   -3.236050|    1.865134|    0.254695|  4.6860e+01|  4.6860e+01|  4.6860e+01|
|         121|  2.6625e-01|   -3.248084|    1.864969|    0.254675|  5.1546e+01|  5.1546e+01|  5.1546e+01|
|         122|  2.6692e-01|   -3.259261|    1.864785|    0.254654|  5.6701e+01|  5.6701e+01|  5.6701e+01|
|         123|  2.6646e-01|   -3.342935|    1.864584|    0.254630|  2.8351e+01|  2.8351e+01|  2.8351e+01|
|         124|  2.6597e-01|   -3.338363|    1.864485|    0.254619|  1.4175e+01|  1.4175e+01|  1.4175e+01|
|         125|  2.6542e-01|   -3.403148|    1.864433|    0.254613|  7.0876e+00|  7.0876e+00|  7.0876e+00|
|         126|  2.6469e-01|   -3.503384|    1.864408|    0.254610|  3.5438e+00|  3.5438e+00|  3.5438e+00|
|         127|  2.6380e-01|   -3.726985|    1.864395|    0.254608|  3.8982e+00|  3.8982e+00|  3.8982e+00|
|         128|  2.6303e-01|   -3.935203|    1.864382|    0.254607|  4.2880e+00|  4.2880e+00|  4.2880e+00|
|         129|  2.6227e-01|   -3.982688|    1.864367|    0.254605|  4.7168e+00|  4.7168e+00|  4.7168e+00|
|         130|  2.6152e-01|   -4.014689|    1.864350|    0.254603|  5.1885e+00|  5.1885e+00|  5.1885e+00|
|         131|  2.6085e-01|   -4.041710|    1.864332|    0.254600|  5.7073e+00|  5.7073e+00|  5.7073e+00|
|         132|  2.6021e-01|   -4.055403|    1.864312|    0.254598|  6.2781e+00|  6.2781e+00|  6.2781e+00|
|         133|  2.6067e-01|   -4.058364|    1.864289|    0.254595|  6.9059e+00|  6.9059e+00|  6.9059e+00|
|         134|  2.6099e-01|   -4.052656|    1.864265|    0.254592|  7.5965e+00|  7.5965e+00|  7.5965e+00|
|         135|  2.6041e-01|   -4.051707|    1.864239|    0.254589|  8.3561e+00|  8.3561e+00|  8.3561e+00|
|         136|  2.5987e-01|   -3.951198|    1.864210|    0.254586|  9.1917e+00|  9.1917e+00|  9.1917e+00|
|         137|  2.5942e-01|   -4.053160|    1.864177|    0.254582|  1.0111e+01|  1.0111e+01|  1.0111e+01|
|         138|  2.5898e-01|   -4.047232|    1.864142|    0.254578|  1.1122e+01|  1.1122e+01|  1.1122e+01|
|         139|  2.5854e-01|   -4.050128|    1.864103|    0.254573|  1.2234e+01|  1.2234e+01|  1.2234e+01|
|         140|  2.5842e-01|   -4.046733|    1.864060|    0.254568|  1.3458e+01|  1.3458e+01|  1.3458e+01|
|         141|  2.5917e-01|   -4.035780|    1.864013|    0.254563|  1.4803e+01|  1.4803e+01|  1.4803e+01|
|         142|  2.5876e-01|   -4.038990|    1.863962|    0.254557|  1.6284e+01|  1.6284e+01|  1.6284e+01|
|         143|  2.5837e-01|   -4.014377|    1.863905|    0.254550|  1.7912e+01|  1.7912e+01|  1.7912e+01|
|         144|  2.5799e-01|   -3.974715|    1.863844|    0.254543|  1.9703e+01|  1.9703e+01|  1.9703e+01|
|         145|  2.5763e-01|   -3.961049|    1.863776|    0.254534|  2.1674e+01|  2.1674e+01|  2.1674e+01|
|         146|  2.5726e-01|   -3.886929|    1.863701|    0.254526|  2.3841e+01|  2.3841e+01|  2.3841e+01|
|         147|  2.5693e-01|   -3.924812|    1.863620|    0.254516|  2.6225e+01|  2.6225e+01|  2.6225e+01|
|         148|  2.5660e-01|   -3.904934|    1.863529|    0.254505|  2.8848e+01|  2.8848e+01|  2.8848e+01|
|         149|  2.5629e-01|   -3.893520|    1.863431|    0.254493|  3.1732e+01|  3.1732e+01|  3.1732e+01|
|         150|  2.5740e-01|   -3.866812|    1.863323|    0.254480|  3.4906e+01|  3.4906e+01|  3.4906e+01|
|         151|  2.5719e-01|   -3.823007|    1.863205|    0.254466|  3.8396e+01|  3.8396e+01|  3.8396e+01|
|         152|  2.5690e-01|   -3.802100|    1.863074|    0.254451|  4.2236e+01|  4.2236e+01|  4.2236e+01|
|         153|  2.5660e-01|   -3.764602|    1.862930|    0.254436|  2.1118e+01|  2.1118e+01|  2.1118e+01|
|         154|  2.5624e-01|   -3.746680|    1.862858|    0.254429|  1.0559e+01|  1.0559e+01|  1.0559e+01|
|         155|  2.5585e-01|   -3.786293|    1.862822|    0.254425|  5.2795e+00|  5.2795e+00|  5.2795e+00|
|         156|  2.5527e-01|   -3.867042|    1.862804|    0.254423|  2.6397e+00|  2.6397e+00|  2.6397e+00|
|         157|  2.5462e-01|   -3.928227|    1.862795|    0.254422|  2.9037e+00|  2.9037e+00|  2.9037e+00|
|         158|  2.5397e-01|   -4.004991|    1.862784|    0.254421|  3.1941e+00|  3.1941e+00|  3.1941e+00|
|         159|  2.5336e-01|   -4.039710|    1.862773|    0.254420|  3.5135e+00|  3.5135e+00|  3.5135e+00|
|         160|  2.5379e-01|   -4.065510|    1.862761|    0.254419|  3.8648e+00|  3.8648e+00|  3.8648e+00|
|         161|  2.5398e-01|   -4.067722|    1.862748|    0.254417|  4.2513e+00|  4.2513e+00|  4.2513e+00|
|         162|  2.5342e-01|   -4.082595|    1.862733|    0.254416|  4.6765e+00|  4.6765e+00|  4.6765e+00|
|         163|  2.5288e-01|   -4.070125|    1.862717|    0.254414|  5.1441e+00|  5.1441e+00|  5.1441e+00|
|         164|  2.5235e-01|   -4.076928|    1.862699|    0.254413|  5.6585e+00|  5.6585e+00|  5.6585e+00|
|         165|  2.5189e-01|   -4.069946|    1.862680|    0.254411|  6.2244e+00|  6.2244e+00|  6.2244e+00|
|         166|  2.5144e-01|   -4.079626|    1.862658|    0.254408|  6.8468e+00|  6.8468e+00|  6.8468e+00|
|         167|  2.5100e-01|   -3.972618|    1.862635|    0.254406|  7.5315e+00|  7.5315e+00|  7.5315e+00|
|         168|  2.5061e-01|   -4.085660|    1.862609|    0.254404|  8.2846e+00|  8.2846e+00|  8.2846e+00|
|         169|  2.5147e-01|   -4.060098|    1.862580|    0.254401|  9.1131e+00|  9.1131e+00|  9.1131e+00|
|         170|  2.5121e-01|   -4.065309|    1.862548|    0.254398|  1.0024e+01|  1.0024e+01|  1.0024e+01|
|         171|  2.5096e-01|   -4.059433|    1.862514|    0.254395|  1.1027e+01|  1.1027e+01|  1.1027e+01|
|         172|  2.5067e-01|   -4.037883|    1.862475|    0.254391|  1.2130e+01|  1.2130e+01|  1.2130e+01|
|         173|  2.5043e-01|   -4.046490|    1.862433|    0.254387|  1.3342e+01|  1.3342e+01|  1.3342e+01|
|         174|  2.5016e-01|   -4.025850|    1.862387|    0.254383|  1.4677e+01|  1.4677e+01|  1.4677e+01|
|         175|  2.4991e-01|   -3.985740|    1.862336|    0.254378|  1.6144e+01|  1.6144e+01|  1.6144e+01|
|         176|  2.4971e-01|   -3.981146|    1.862279|    0.254373|  1.7759e+01|  1.7759e+01|  1.7759e+01|
|         177|  2.4952e-01|   -3.908793|    1.862217|    0.254367|  1.9535e+01|  1.9535e+01|  1.9535e+01|
|         178|  2.4928e-01|   -3.917712|    1.862149|    0.254360|  2.1488e+01|  2.1488e+01|  2.1488e+01|
|         179|  2.5040e-01|   -3.885585|    1.862074|    0.254353|  2.3637e+01|  2.3637e+01|  2.3637e+01|
|         180|  2.5096e-01|   -3.880631|    1.861992|    0.254345|  2.6001e+01|  2.6001e+01|  2.6001e+01|
|         181|  2.5073e-01|   -3.872532|    1.861901|    0.254336|  2.8601e+01|  2.8601e+01|  2.8601e+01|
|         182|  2.5056e-01|   -3.841334|    1.861801|    0.254325|  3.1461e+01|  3.1461e+01|  3.1461e+01|
|         183|  2.5038e-01|   -3.824578|    1.861690|    0.254312|  3.4607e+01|  3.4607e+01|  3.4607e+01|
|         184|  2.5020e-01|   -3.788475|    1.861569|    0.254296|  3.8068e+01|  3.8068e+01|  3.8068e+01|
|         185|  2.5001e-01|   -3.772754|    1.861435|    0.254278|  4.1874e+01|  4.1874e+01|  4.1874e+01|
|         186|  2.4986e-01|   -3.761079|    1.861287|    0.254256|  4.6062e+01|  4.6062e+01|  4.6062e+01|
|         187|  2.5144e-01|   -3.739780|    1.861126|    0.254230|  4.6062e+01|  4.6062e+01|  4.6062e+01|
|         188|  2.5121e-01|   -3.699332|    1.860966|    0.254205|  4.6062e+01|  4.6062e+01|  4.6062e+01|
|         189|  2.5102e-01|   -3.668817|    1.860808|    0.254180|  4.6062e+01|  4.6062e+01|  4.6062e+01|
|         190|  2.5084e-01|   -3.661793|    1.860652|    0.254156|  4.6062e+01|  4.6062e+01|  4.6062e+01|
|         191|  2.5074e-01|   -3.675223|    1.860498|    0.254132|  5.0668e+01|  5.0668e+01|  5.0668e+01|
|         192|  2.5054e-01|   -3.677728|    1.860329|    0.254106|  2.5334e+01|  2.5334e+01|  2.5334e+01|
|         193|  2.5045e-01|   -3.682825|    1.860243|    0.254093|  1.2667e+01|  1.2667e+01|  1.2667e+01|
|         194|  2.5116e-01|   -3.743000|    1.860200|    0.254086|  6.3335e+00|  6.3335e+00|  6.3335e+00|
|         195|  2.5187e-01|   -3.838674|    1.860179|    0.254083|  6.9669e+00|  6.9669e+00|  6.9669e+00|
|         196|  2.5145e-01|   -3.914502|    1.860156|    0.254079|  7.6635e+00|  7.6635e+00|  7.6635e+00|
|         197|  2.5113e-01|   -3.966275|    1.860130|    0.254075|  8.4299e+00|  8.4299e+00|  8.4299e+00|
|         198|  2.5082e-01|   -3.968573|    1.860101|    0.254071|  9.2729e+00|  9.2729e+00|  9.2729e+00|
|         199|  2.5055e-01|   -3.998631|    1.860069|    0.254066|  1.0200e+01|  1.0200e+01|  1.0200e+01|
|         200|  2.5030e-01|   -4.015797|    1.860035|    0.254061|  1.1220e+01|  1.1220e+01|  1.1220e+01|
|         201|  2.5005e-01|   -4.034474|    1.859998|    0.254055|  1.2342e+01|  1.2342e+01|  1.2342e+01|
|         202|  2.5001e-01|   -4.042365|    1.859956|    0.254048|  1.3576e+01|  1.3576e+01|  1.3576e+01|
|         203|  2.5121e-01|   -4.036510|    1.859910|    0.254041|  1.4934e+01|  1.4934e+01|  1.4934e+01|
|         204|  2.5094e-01|   -4.034027|    1.859860|    0.254033|  1.6427e+01|  1.6427e+01|  1.6427e+01|
|         205|  2.5076e-01|   -4.025275|    1.859806|    0.254024|  1.8070e+01|  1.8070e+01|  1.8070e+01|
|         206|  2.5055e-01|   -4.021189|    1.859746|    0.254015|  1.9877e+01|  1.9877e+01|  1.9877e+01|
|         207|  2.5034e-01|   -3.986889|    1.859679|    0.254005|  2.1865e+01|  2.1865e+01|  2.1865e+01|
|         208|  2.5013e-01|   -3.959295|    1.859607|    0.253993|  2.4051e+01|  2.4051e+01|  2.4051e+01|
|         209|  2.4994e-01|   -3.946717|    1.859528|    0.253981|  2.6457e+01|  2.6457e+01|  2.6457e+01|
|         210|  2.4985e-01|   -3.918198|    1.859441|    0.253968|  2.9102e+01|  2.9102e+01|  2.9102e+01|
|         211|  2.5145e-01|   -3.869650|    1.859346|    0.253954|  3.2013e+01|  3.2013e+01|  3.2013e+01|
|         212|  2.5162e-01|   -3.828419|    1.859242|    0.253939|  3.5214e+01|  3.5214e+01|  3.5214e+01|
|         213|  2.5164e-01|   -3.801993|    1.859129|    0.253923|  3.8735e+01|  3.8735e+01|  3.8735e+01|
|         214|  2.5147e-01|   -3.780128|    1.859004|    0.253907|  4.2609e+01|  4.2609e+01|  4.2609e+01|
|         215|  2.5130e-01|   -3.743241|    1.858868|    0.253889|  4.6870e+01|  4.6870e+01|  4.6870e+01|
|         216|  2.5113e-01|   -3.686642|    1.858721|    0.253871|  5.1556e+01|  5.1556e+01|  5.1556e+01|
|         217|  2.5111e-01|   -3.607102|    1.858563|    0.253854|  5.1556e+01|  5.1556e+01|  5.1556e+01|
|         218|  2.5217e-01|   -3.559599|    1.858405|    0.253839|  5.6712e+01|  5.6712e+01|  5.6712e+01|
|         219|  2.5197e-01|   -3.535205|    1.858235|    0.253824|  2.8356e+01|  2.8356e+01|  2.8356e+01|
|         220|  2.5177e-01|   -3.451655|    1.858151|    0.253817|  1.4178e+01|  1.4178e+01|  1.4178e+01|
|         221|  2.5153e-01|   -3.368810|    1.858108|    0.253814|  7.0890e+00|  7.0890e+00|  7.0890e+00|
|         222|  2.5119e-01|   -3.371906|    1.858087|    0.253813|  3.5445e+00|  3.5445e+00|  3.5445e+00|
|         223|  2.5075e-01|   -3.485653|    1.858076|    0.253812|  3.8990e+00|  3.8990e+00|  3.8990e+00|
|         224|  2.5032e-01|   -3.772956|    1.858064|    0.253811|  4.2889e+00|  4.2889e+00|  4.2889e+00|
|         225|  2.5091e-01|   -3.890773|    1.858051|    0.253809|  4.7177e+00|  4.7177e+00|  4.7177e+00|
|         226|  2.5059e-01|   -4.006479|    1.858037|    0.253808|  5.1895e+00|  5.1895e+00|  5.1895e+00|
|         227|  2.5022e-01|   -3.984717|    1.858022|    0.253807|  5.7085e+00|  5.7085e+00|  5.7085e+00|
|         228|  2.4990e-01|   -3.994704|    1.858005|    0.253806|  6.2793e+00|  6.2793e+00|  6.2793e+00|
|         229|  2.4959e-01|   -4.035336|    1.857987|    0.253804|  3.1397e+00|  3.1397e+00|  3.1397e+00|
|         230|  2.4919e-01|   -4.084508|    1.857977|    0.253803|  1.5698e+00|  1.5698e+00|  1.5698e+00|
|         231|  2.4874e-01|   -4.114159|    1.857973|    0.253803|  1.0000e+00|  1.0000e+00|  1.0000e+00|
|         232|  2.4829e-01|   -4.143744|    1.857970|    0.253803|  1.0000e+00|  1.0000e+00|  1.0000e+00|
|         233|  2.4860e-01|   -4.162338|    1.857967|    0.253803|  1.0000e+00|  1.0000e+00|  1.0000e+00|
|         234|  2.4866e-01|   -4.172802|    1.857964|    0.253802|  1.1000e+00|  1.1000e+00|  1.1000e+00|
|         235|  2.4821e-01|   -4.185249|    1.857961|    0.253802|  1.2100e+00|  1.2100e+00|  1.2100e+00|
|         236|  2.4777e-01|   -4.194864|    1.857957|    0.253802|  1.3310e+00|  1.3310e+00|  1.3310e+00|
|         237|  2.4734e-01|   -4.204331|    1.857953|    0.253802|  1.4641e+00|  1.4641e+00|  1.4641e+00|
|         238|  2.4693e-01|   -4.213952|    1.857949|    0.253801|  1.6105e+00|  1.6105e+00|  1.6105e+00|
|         239|  2.4656e-01|   -4.223483|    1.857944|    0.253801|  1.7716e+00|  1.7716e+00|  1.7716e+00|
|         240|  2.4618e-01|   -4.233004|    1.857939|    0.253800|  1.9487e+00|  1.9487e+00|  1.9487e+00|
|         241|  2.4581e-01|   -4.240425|    1.857933|    0.253800|  2.1436e+00|  2.1436e+00|  2.1436e+00|
|         242|  2.4553e-01|   -4.244141|    1.857926|    0.253799|  2.3579e+00|  2.3579e+00|  2.3579e+00|
|         243|  2.4625e-01|   -4.207269|    1.857919|    0.253799|  2.5937e+00|  2.5937e+00|  2.5937e+00|
|         244|  2.4623e-01|   -4.097256|    1.857911|    0.253798|  2.8531e+00|  2.8531e+00|  2.8531e+00|
|         245|  2.4586e-01|   -4.192876|    1.857903|    0.253798|  3.1384e+00|  3.1384e+00|  3.1384e+00|
|         246|  2.4558e-01|   -4.244501|    1.857894|    0.253797|  3.4523e+00|  3.4523e+00|  3.4523e+00|
|         247|  2.4545e-01|   -4.222937|    1.857883|    0.253796|  3.7975e+00|  3.7975e+00|  3.7975e+00|
|         248|  2.4515e-01|   -4.249784|    1.857872|    0.253795|  4.1772e+00|  4.1772e+00|  4.1772e+00|
|         249|  2.4504e-01|   -4.241462|    1.857860|    0.253794|  4.5950e+00|  4.5950e+00|  4.5950e+00|
|         250|  2.4473e-01|   -4.238836|    1.857846|    0.253793|  5.0545e+00|  5.0545e+00|  5.0545e+00|
|         251|  2.4545e-01|   -4.241911|    1.857831|    0.253792|  5.5599e+00|  5.5599e+00|  5.5599e+00|
|         252|  2.4526e-01|   -4.238621|    1.857814|    0.253791|  6.1159e+00|  6.1159e+00|  6.1159e+00|
|         253|  2.4499e-01|   -4.231554|    1.857796|    0.253789|  6.7275e+00|  6.7275e+00|  6.7275e+00|
|         254|  2.4477e-01|   -4.228535|    1.857775|    0.253788|  7.4002e+00|  7.4002e+00|  7.4002e+00|
|         255|  2.4458e-01|   -4.178345|    1.857753|    0.253786|  8.1403e+00|  8.1403e+00|  8.1403e+00|
|         256|  2.4436e-01|   -4.077339|    1.857729|    0.253784|  8.9543e+00|  8.9543e+00|  8.9543e+00|
|         257|  2.4417e-01|   -4.154269|    1.857702|    0.253781|  9.8497e+00|  9.8497e+00|  9.8497e+00|
|         258|  2.4501e-01|   -4.101426|    1.857672|    0.253778|  1.0835e+01|  1.0835e+01|  1.0835e+01|
|         259|  2.4503e-01|   -4.107162|    1.857640|    0.253775|  5.4174e+00|  5.4174e+00|  5.4174e+00|
|         260|  2.4488e-01|   -4.104175|    1.857624|    0.253774|  2.7087e+00|  2.7087e+00|  2.7087e+00|
|         261|  2.4453e-01|   -4.131348|    1.857616|    0.253773|  1.3543e+00|  1.3543e+00|  1.3543e+00|
|         262|  2.4420e-01|   -4.153669|    1.857612|    0.253773|  1.0000e+00|  1.0000e+00|  1.0000e+00|
|         263|  2.4378e-01|   -4.174856|    1.857609|    0.253772|  1.0000e+00|  1.0000e+00|  1.0000e+00|
|         264|  2.4336e-01|   -4.187194|    1.857606|    0.253772|  1.0000e+00|  1.0000e+00|  1.0000e+00|
|         265|  2.4295e-01|   -4.197629|    1.857603|    0.253772|  1.1000e+00|  1.1000e+00|  1.1000e+00|
|         266|  2.4259e-01|   -4.199647|    1.857600|    0.253771|  1.2100e+00|  1.2100e+00|  1.2100e+00|
|         267|  2.4233e-01|   -4.205131|    1.857596|    0.253771|  1.3310e+00|  1.3310e+00|  1.3310e+00|
|         268|  2.4197e-01|   -4.205851|    1.857592|    0.253771|  1.4641e+00|  1.4641e+00|  1.4641e+00|
|         269|  2.4233e-01|   -4.201673|    1.857588|    0.253770|  1.6105e+00|  1.6105e+00|  1.6105e+00|
|         270|  2.4245e-01|   -4.181156|    1.857583|    0.253770|  1.0000e+00|  1.0000e+00|  1.0000e+00|
|         271|  2.4205e-01|   -4.191132|    1.857580|    0.253769|  1.0000e+00|  1.0000e+00|  1.0000e+00|
|         272|  2.4166e-01|   -4.175708|    1.857577|    0.253769|  1.0000e+00|  1.0000e+00|  1.0000e+00|
|         273|  2.4128e-01|   -4.165239|    1.857574|    0.253769|  1.0000e+00|  1.0000e+00|  1.0000e+00|
|         274|  2.4090e-01|   -4.164487|    1.857571|    0.253768|  1.1000e+00|  1.1000e+00|  1.1000e+00|
|         275|  2.4066e-01|   -4.127005|    1.857568|    0.253768|  1.2100e+00|  1.2100e+00|  1.2100e+00|
|         276|  2.4036e-01|   -4.137623|    1.857564|    0.253768|  1.3310e+00|  1.3310e+00|  1.3310e+00|
|         277|  2.4002e-01|   -4.195897|    1.857560|    0.253767|  1.4641e+00|  1.4641e+00|  1.4641e+00|
|         278|  2.3968e-01|   -4.184816|    1.857556|    0.253767|  1.6105e+00|  1.6105e+00|  1.6105e+00|
|         279|  2.3934e-01|   -4.199883|    1.857551|    0.253766|  1.7716e+00|  1.7716e+00|  1.7716e+00|
|         280|  2.3902e-01|   -4.221049|    1.857545|    0.253766|  1.9487e+00|  1.9487e+00|  1.9487e+00|
|         281|  2.3872e-01|   -4.223664|    1.857540|    0.253765|  2.1436e+00|  2.1436e+00|  2.1436e+00|
|         282|  2.3843e-01|   -4.234324|    1.857533|    0.253764|  2.3579e+00|  2.3579e+00|  2.3579e+00|
|         283|  2.3829e-01|   -4.241331|    1.857526|    0.253763|  2.5937e+00|  2.5937e+00|  2.5937e+00|
|         284|  2.3902e-01|   -4.249516|    1.857518|    0.253763|  2.8531e+00|  2.8531e+00|  2.8531e+00|
|         285|  2.3870e-01|   -4.259691|    1.857510|    0.253762|  3.1384e+00|  3.1384e+00|  3.1384e+00|
|         286|  2.3841e-01|   -4.269527|    1.857500|    0.253760|  3.4523e+00|  3.4523e+00|  3.4523e+00|
|         287|  2.3816e-01|   -4.272469|    1.857490|    0.253759|  3.7975e+00|  3.7975e+00|  3.7975e+00|
|         288|  2.3792e-01|   -4.274268|    1.857478|    0.253758|  4.1772e+00|  4.1772e+00|  4.1772e+00|
|         289|  2.3767e-01|   -4.276984|    1.857465|    0.253756|  4.5950e+00|  4.5950e+00|  4.5950e+00|
|         290|  2.3754e-01|   -4.259173|    1.857451|    0.253754|  5.0545e+00|  5.0545e+00|  5.0545e+00|
|         291|  2.3729e-01|   -4.087861|    1.857436|    0.253752|  5.5599e+00|  5.5599e+00|  5.5599e+00|
|         292|  2.3710e-01|   -4.211106|    1.857418|    0.253750|  6.1159e+00|  6.1159e+00|  6.1159e+00|
|         293|  2.3760e-01|   -4.225232|    1.857399|    0.253748|  6.7275e+00|  6.7275e+00|  6.7275e+00|
|         294|  2.3770e-01|   -4.232701|    1.857378|    0.253745|  7.4002e+00|  7.4002e+00|  7.4002e+00|
|         295|  2.3753e-01|   -4.221712|    1.857355|    0.253741|  8.1403e+00|  8.1403e+00|  8.1403e+00|
|         296|  2.3740e-01|   -4.216207|    1.857329|    0.253738|  8.9543e+00|  8.9543e+00|  8.9543e+00|
|         297|  2.3737e-01|   -4.208761|    1.857301|    0.253733|  9.8497e+00|  9.8497e+00|  9.8497e+00|
|         298|  2.3725e-01|   -4.194985|    1.857269|    0.253729|  1.0835e+01|  1.0835e+01|  1.0835e+01|
|         299|  2.3718e-01|   -4.178272|    1.857235|    0.253723|  1.1918e+01|  1.1918e+01|  1.1918e+01|
|         300|  2.3706e-01|   -4.160395|    1.857197|    0.253717|  1.3110e+01|  1.3110e+01|  1.3110e+01|
|         301|  2.3790e-01|   -4.131195|    1.857156|    0.253710|  6.5550e+00|  6.5550e+00|  6.5550e+00|
|         302|  2.3767e-01|   -4.093610|    1.857135|    0.253707|  3.2775e+00|  3.2775e+00|  3.2775e+00|
|         303|  2.3740e-01|   -4.118438|    1.857125|    0.253705|  1.6387e+00|  1.6387e+00|  1.6387e+00|
|         304|  2.3710e-01|   -4.151208|    1.857120|    0.253704|  1.0000e+00|  1.0000e+00|  1.0000e+00|
|         305|  2.3682e-01|   -4.173713|    1.857116|    0.253703|  1.0000e+00|  1.0000e+00|  1.0000e+00|
|         306|  2.3654e-01|   -4.186576|    1.857113|    0.253703|  1.1000e+00|  1.1000e+00|  1.1000e+00|
|         307|  2.3624e-01|   -4.191598|    1.857110|    0.253702|  1.2100e+00|  1.2100e+00|  1.2100e+00|
|         308|  2.3595e-01|   -4.196061|    1.857106|    0.253702|  1.3310e+00|  1.3310e+00|  1.3310e+00|
|         309|  2.3567e-01|   -4.199822|    1.857102|    0.253701|  1.4641e+00|  1.4641e+00|  1.4641e+00|
|         310|  2.3543e-01|   -4.201800|    1.857097|    0.253700|  1.6105e+00|  1.6105e+00|  1.6105e+00|
|         311|  2.3558e-01|   -4.213167|    1.857092|    0.253699|  1.7716e+00|  1.7716e+00|  1.7716e+00|
|         312|  2.3576e-01|   -4.219368|    1.857087|    0.253698|  1.9487e+00|  1.9487e+00|  1.9487e+00|
|         313|  2.3550e-01|   -4.225622|    1.857081|    0.253697|  2.1436e+00|  2.1436e+00|  2.1436e+00|
|         314|  2.3531e-01|   -4.230855|    1.857074|    0.253696|  2.3579e+00|  2.3579e+00|  2.3579e+00|
|         315|  2.3506e-01|   -4.243549|    1.857067|    0.253695|  2.5937e+00|  2.5937e+00|  2.5937e+00|
|         316|  2.3490e-01|   -4.259837|    1.857058|    0.253693|  2.8531e+00|  2.8531e+00|  2.8531e+00|
|         317|  2.3465e-01|   -4.265601|    1.857050|    0.253692|  3.1384e+00|  3.1384e+00|  3.1384e+00|
|         318|  2.3442e-01|   -4.261855|    1.857040|    0.253690|  3.4523e+00|  3.4523e+00|  3.4523e+00|
|         319|  2.3418e-01|   -4.144673|    1.857029|    0.253688|  3.7975e+00|  3.7975e+00|  3.7975e+00|
|         320|  2.3401e-01|   -4.225904|    1.857017|    0.253686|  4.1772e+00|  4.1772e+00|  4.1772e+00|
|         321|  2.3383e-01|   -4.271039|    1.857004|    0.253684|  4.5950e+00|  4.5950e+00|  4.5950e+00|
|         322|  2.3368e-01|   -4.285191|    1.856990|    0.253681|  5.0545e+00|  5.0545e+00|  5.0545e+00|
|         323|  2.3350e-01|   -4.289344|    1.856975|    0.253678|  5.5599e+00|  5.5599e+00|  5.5599e+00|
|         324|  2.3410e-01|   -4.290430|    1.856957|    0.253675|  6.1159e+00|  6.1159e+00|  6.1159e+00|
|         325|  2.3418e-01|   -4.291938|    1.856938|    0.253671|  6.7275e+00|  6.7275e+00|  6.7275e+00|
|         326|  2.3404e-01|   -4.287576|    1.856918|    0.253667|  7.4002e+00|  7.4002e+00|  7.4002e+00|
|         327|  2.3391e-01|   -4.281411|    1.856895|    0.253663|  8.1403e+00|  8.1403e+00|  8.1403e+00|
|         328|  2.3381e-01|   -4.261658|    1.856869|    0.253658|  8.9543e+00|  8.9543e+00|  8.9543e+00|
|         329|  2.3370e-01|   -4.239662|    1.856842|    0.253653|  9.8497e+00|  9.8497e+00|  9.8497e+00|
|         330|  2.3366e-01|   -4.219203|    1.856811|    0.253647|  1.0835e+01|  1.0835e+01|  1.0835e+01|
|         331|  2.3362e-01|   -4.114200|    1.856777|    0.253641|  1.1918e+01|  1.1918e+01|  1.1918e+01|
|         332|  2.3353e-01|   -4.172906|    1.856741|    0.253634|  5.9591e+00|  5.9591e+00|  5.9591e+00|
|         333|  2.3350e-01|   -4.134355|    1.856722|    0.253631|  2.9795e+00|  2.9795e+00|  2.9795e+00|
|         334|  2.3402e-01|   -4.176144|    1.856713|    0.253630|  1.4898e+00|  1.4898e+00|  1.4898e+00|
|         335|  2.3373e-01|   -4.212469|    1.856708|    0.253629|  1.0000e+00|  1.0000e+00|  1.0000e+00|
|         336|  2.3344e-01|   -4.236523|    1.856705|    0.253628|  1.0000e+00|  1.0000e+00|  1.0000e+00|
|         337|  2.3317e-01|   -4.250778|    1.856702|    0.253628|  1.0000e+00|  1.0000e+00|  1.0000e+00|
|         338|  2.3294e-01|   -4.258073|    1.856699|    0.253627|  1.0000e+00|  1.0000e+00|  1.0000e+00|
|         339|  2.3267e-01|   -4.263596|    1.856696|    0.253627|  1.0000e+00|  1.0000e+00|  1.0000e+00|
|         340|  2.3242e-01|   -4.268165|    1.856693|    0.253626|  1.0000e+00|  1.0000e+00|  1.0000e+00|
|         341|  2.3218e-01|   -4.272359|    1.856690|    0.253626|  1.0000e+00|  1.0000e+00|  1.0000e+00|
|         342|  2.3195e-01|   -4.266877|    1.856687|    0.253625|  1.0000e+00|  1.0000e+00|  1.0000e+00|
|         343|  2.3170e-01|   -4.277017|    1.856684|    0.253625|  1.1000e+00|  1.1000e+00|  1.1000e+00|
|         344|  2.3146e-01|   -4.282873|    1.856680|    0.253624|  1.2100e+00|  1.2100e+00|  1.2100e+00|
|         345|  2.3121e-01|   -4.279185|    1.856677|    0.253623|  1.0000e+00|  1.0000e+00|  1.0000e+00|
|         346|  2.3156e-01|   -4.290780|    1.856674|    0.253623|  1.1000e+00|  1.1000e+00|  1.1000e+00|
|         347|  2.3175e-01|   -4.295041|    1.856670|    0.253622|  1.0000e+00|  1.0000e+00|  1.0000e+00|
|         348|  2.3152e-01|   -4.288013|    1.856667|    0.253622|  1.0000e+00|  1.0000e+00|  1.0000e+00|
|         349|  2.3133e-01|   -4.258303|    1.856664|    0.253621|  1.0000e+00|  1.0000e+00|  1.0000e+00|
|         350|  2.3109e-01|   -4.252666|    1.856661|    0.253621|  1.0000e+00|  1.0000e+00|  1.0000e+00|
|         351|  2.3085e-01|   -4.280069|    1.856658|    0.253620|  1.0000e+00|  1.0000e+00|  1.0000e+00|
|         352|  2.3061e-01|   -4.256236|    1.856655|    0.253620|  1.0000e+00|  1.0000e+00|  1.0000e+00|
|         353|  2.3037e-01|   -4.208503|    1.856652|    0.253619|  1.0000e+00|  1.0000e+00|  1.0000e+00|
|         354|  2.3014e-01|   -4.217725|    1.856649|    0.253619|  1.0000e+00|  1.0000e+00|  1.0000e+00|
|         355|  2.2990e-01|   -4.296241|    1.856646|    0.253618|  1.1000e+00|  1.1000e+00|  1.1000e+00|
|         356|  2.2967e-01|   -4.284590|    1.856642|    0.253618|  1.2100e+00|  1.2100e+00|  1.2100e+00|
|         357|  2.2943e-01|   -4.288868|    1.856639|    0.253617|  1.3310e+00|  1.3310e+00|  1.3310e+00|
|         358|  2.2920e-01|   -4.302794|    1.856635|    0.253617|  1.4641e+00|  1.4641e+00|  1.4641e+00|
|         359|  2.2925e-01|   -4.311363|    1.856630|    0.253616|  1.6105e+00|  1.6105e+00|  1.6105e+00|
|         360|  2.2939e-01|   -4.313950|    1.856625|    0.253615|  1.7716e+00|  1.7716e+00|  1.7716e+00|
|         361|  2.2915e-01|   -4.313989|    1.856620|    0.253614|  1.9487e+00|  1.9487e+00|  1.9487e+00|
|         362|  2.2895e-01|   -4.313085|    1.856614|    0.253613|  2.1436e+00|  2.1436e+00|  2.1436e+00|
|         363|  2.2876e-01|   -4.312867|    1.856608|    0.253613|  2.3579e+00|  2.3579e+00|  2.3579e+00|
|         364|  2.2857e-01|   -4.312550|    1.856601|    0.253612|  2.5937e+00|  2.5937e+00|  2.5937e+00|
|         365|  2.2837e-01|   -4.311703|    1.856593|    0.253610|  2.8531e+00|  2.8531e+00|  2.8531e+00|
|         366|  2.2819e-01|   -4.309660|    1.856584|    0.253609|  3.1384e+00|  3.1384e+00|  3.1384e+00|
|         367|  2.2802e-01|   -4.304894|    1.856575|    0.253608|  3.4523e+00|  3.4523e+00|  3.4523e+00|
|         368|  2.2786e-01|   -4.297287|    1.856565|    0.253607|  3.7975e+00|  3.7975e+00|  3.7975e+00|
|         369|  2.2777e-01|   -4.276388|    1.856554|    0.253605|  4.1772e+00|  4.1772e+00|  4.1772e+00|
|         370|  2.2761e-01|   -4.226540|    1.856541|    0.253604|  4.5950e+00|  4.5950e+00|  4.5950e+00|
|         371|  2.2816e-01|   -4.179793|    1.856528|    0.253602|  2.2975e+00|  2.2975e+00|  2.2975e+00|
|         372|  2.2802e-01|   -4.239360|    1.856521|    0.253601|  1.1487e+00|  1.1487e+00|  1.1487e+00|
|         373|  2.2782e-01|   -4.224839|    1.856518|    0.253601|  1.0000e+00|  1.0000e+00|  1.0000e+00|
|         374|  2.2760e-01|   -4.242510|    1.856515|    0.253600|  1.0000e+00|  1.0000e+00|  1.0000e+00|
|         375|  2.2739e-01|   -4.254478|    1.856512|    0.253600|  1.0000e+00|  1.0000e+00|  1.0000e+00|
|         376|  2.2718e-01|   -4.263745|    1.856509|    0.253600|  1.1000e+00|  1.1000e+00|  1.1000e+00|
|         377|  2.2698e-01|   -4.286295|    1.856506|    0.253599|  1.2100e+00|  1.2100e+00|  1.2100e+00|
|         378|  2.2687e-01|   -4.303785|    1.856502|    0.253599|  1.3310e+00|  1.3310e+00|  1.3310e+00|
|         379|  2.2669e-01|   -4.317031|    1.856499|    0.253599|  1.4641e+00|  1.4641e+00|  1.4641e+00|
|         380|  2.2652e-01|   -4.327164|    1.856494|    0.253598|  1.6105e+00|  1.6105e+00|  1.6105e+00|
|         381|  2.2632e-01|   -4.333931|    1.856490|    0.253598|  1.7716e+00|  1.7716e+00|  1.7716e+00|
|         382|  2.2612e-01|   -4.339768|    1.856485|    0.253597|  1.9487e+00|  1.9487e+00|  1.9487e+00|
|         383|  2.2670e-01|   -4.344614|    1.856479|    0.253596|  2.1436e+00|  2.1436e+00|  2.1436e+00|
|         384|  2.2659e-01|   -4.348068|    1.856473|    0.253596|  1.0718e+00|  1.0718e+00|  1.0718e+00|
|         385|  2.2639e-01|   -4.348192|    1.856470|    0.253595|  1.0000e+00|  1.0000e+00|  1.0000e+00|
|         386|  2.2618e-01|   -4.348729|    1.856467|    0.253595|  1.1000e+00|  1.1000e+00|  1.1000e+00|
|         387|  2.2598e-01|   -4.345634|    1.856464|    0.253595|  1.2100e+00|  1.2100e+00|  1.2100e+00|
|         388|  2.2577e-01|   -4.315481|    1.856460|    0.253594|  1.3310e+00|  1.3310e+00|  1.3310e+00|
|         389|  2.2559e-01|   -4.309397|    1.856457|    0.253594|  1.4641e+00|  1.4641e+00|  1.4641e+00|
|         390|  2.2538e-01|   -4.258158|    1.856453|    0.253594|  1.6105e+00|  1.6105e+00|  1.6105e+00|
|         391|  2.2518e-01|   -4.314377|    1.856448|    0.253593|  1.7716e+00|  1.7716e+00|  1.7716e+00|
|         392|  2.2499e-01|   -4.243624|    1.856443|    0.253593|  1.9487e+00|  1.9487e+00|  1.9487e+00|
|         393|  2.2480e-01|   -4.197388|    1.856437|    0.253592|  1.0000e+00|  1.0000e+00|  1.0000e+00|
|         394|  2.2496e-01|   -4.334557|    1.856435|    0.253592|  1.0000e+00|  1.0000e+00|  1.0000e+00|
|         395|  2.2531e-01|   -4.312874|    1.856432|    0.253592|  1.0000e+00|  1.0000e+00|  1.0000e+00|
|         396|  2.2511e-01|   -4.319257|    1.856429|    0.253591|  1.0000e+00|  1.0000e+00|  1.0000e+00|
|         397|  2.2491e-01|   -4.335212|    1.856426|    0.253591|  1.0000e+00|  1.0000e+00|  1.0000e+00|
|         398|  2.2471e-01|   -4.346740|    1.856423|    0.253591|  1.1000e+00|  1.1000e+00|  1.1000e+00|
|         399|  2.2458e-01|   -4.352630|    1.856420|    0.253591|  1.2100e+00|  1.2100e+00|  1.2100e+00|
|         400|  2.2439e-01|   -4.355321|    1.856417|    0.253590|  1.3310e+00|  1.3310e+00|  1.3310e+00|
|         401|  2.2419e-01|   -4.355948|    1.856413|    0.253590|  1.4641e+00|  1.4641e+00|  1.4641e+00|
|         402|  2.2400e-01|   -4.356334|    1.856409|    0.253590|  1.6105e+00|  1.6105e+00|  1.6105e+00|
|         403|  2.2381e-01|   -4.357467|    1.856404|    0.253589|  1.7716e+00|  1.7716e+00|  1.7716e+00|
|         404|  2.2362e-01|   -4.360245|    1.856399|    0.253589|  1.9487e+00|  1.9487e+00|  1.9487e+00|
|         405|  2.2366e-01|   -4.363059|    1.856394|    0.253588|  2.1436e+00|  2.1436e+00|  2.1436e+00|
|         406|  2.2421e-01|   -4.366303|    1.856388|    0.253588|  2.3579e+00|  2.3579e+00|  2.3579e+00|
|         407|  2.2405e-01|   -4.368817|    1.856381|    0.253587|  2.5937e+00|  2.5937e+00|  2.5937e+00|
|         408|  2.2389e-01|   -4.369038|    1.856374|    0.253587|  2.8531e+00|  2.8531e+00|  2.8531e+00|
|         409|  2.2373e-01|   -4.365892|    1.856366|    0.253586|  3.1384e+00|  3.1384e+00|  3.1384e+00|
|         410|  2.2360e-01|   -4.347084|    1.856357|    0.253585|  1.5692e+00|  1.5692e+00|  1.5692e+00|
|         411|  2.2341e-01|   -4.335546|    1.856353|    0.253585|  1.0000e+00|  1.0000e+00|  1.0000e+00|
|         412|  2.2322e-01|   -4.300535|    1.856350|    0.253585|  1.0000e+00|  1.0000e+00|  1.0000e+00|
|         413|  2.2304e-01|   -4.305357|    1.856347|    0.253585|  1.0000e+00|  1.0000e+00|  1.0000e+00|
|         414|  2.2285e-01|   -4.252988|    1.856344|    0.253585|  1.0000e+00|  1.0000e+00|  1.0000e+00|
|         415|  2.2267e-01|   -4.238374|    1.856341|    0.253584|  1.0000e+00|  1.0000e+00|  1.0000e+00|
|         416|  2.2248e-01|   -4.327274|    1.856339|    0.253584|  1.0000e+00|  1.0000e+00|  1.0000e+00|
|         417|  2.2265e-01|   -4.322292|    1.856336|    0.253584|  1.0000e+00|  1.0000e+00|  1.0000e+00|
|         418|  2.2286e-01|   -4.321923|    1.856333|    0.253584|  1.0000e+00|  1.0000e+00|  1.0000e+00|
|         419|  2.2266e-01|   -4.339952|    1.856330|    0.253583|  1.1000e+00|  1.1000e+00|  1.1000e+00|
|         420|  2.2248e-01|   -4.354169|    1.856327|    0.253583|  1.2100e+00|  1.2100e+00|  1.2100e+00|
|         421|  2.2230e-01|   -4.360666|    1.856324|    0.253583|  1.3310e+00|  1.3310e+00|  1.3310e+00|
|         422|  2.2212e-01|   -4.362288|    1.856320|    0.253583|  1.4641e+00|  1.4641e+00|  1.4641e+00|
|         423|  2.2194e-01|   -4.361187|    1.856316|    0.253582|  1.6105e+00|  1.6105e+00|  1.6105e+00|
|         424|  2.2177e-01|   -4.359228|    1.856311|    0.253582|  1.7716e+00|  1.7716e+00|  1.7716e+00|
|         425|  2.2164e-01|   -4.358021|    1.856307|    0.253582|  1.9487e+00|  1.9487e+00|  1.9487e+00|
|         426|  2.2149e-01|   -4.356545|    1.856301|    0.253581|  2.1436e+00|  2.1436e+00|  2.1436e+00|
|         427|  2.2161e-01|   -4.356591|    1.856295|    0.253581|  2.3579e+00|  2.3579e+00|  2.3579e+00|
|         428|  2.2195e-01|   -4.357433|    1.856289|    0.253581|  2.5937e+00|  2.5937e+00|  2.5937e+00|
|         429|  2.2178e-01|   -4.357521|    1.856281|    0.253580|  2.8531e+00|  2.8531e+00|  2.8531e+00|
|         430|  2.2163e-01|   -4.355440|    1.856274|    0.253580|  3.1384e+00|  3.1384e+00|  3.1384e+00|
|         431|  2.2151e-01|   -4.352260|    1.856265|    0.253579|  3.4523e+00|  3.4523e+00|  3.4523e+00|
|         432|  2.2142e-01|   -4.328046|    1.856255|    0.253579|  3.7975e+00|  3.7975e+00|  3.7975e+00|
|         433|  2.2130e-01|   -4.234061|    1.856245|    0.253578|  4.1772e+00|  4.1772e+00|  4.1772e+00|
|         434|  2.2120e-01|   -4.237700|    1.856233|    0.253577|  4.5950e+00|  4.5950e+00|  4.5950e+00|
|         435|  2.2110e-01|   -4.311151|    1.856221|    0.253577|  5.0545e+00|  5.0545e+00|  5.0545e+00|
|         436|  2.2103e-01|   -4.306117|    1.856207|    0.253576|  5.5599e+00|  5.5599e+00|  5.5599e+00|
|         437|  2.2164e-01|   -4.307781|    1.856191|    0.253575|  6.1159e+00|  6.1159e+00|  6.1159e+00|
|         438|  2.2167e-01|   -4.300760|    1.856175|    0.253574|  6.7275e+00|  6.7275e+00|  6.7275e+00|
|         439|  2.2174e-01|   -4.292864|    1.856156|    0.253573|  7.4002e+00|  7.4002e+00|  7.4002e+00|
|         440|  2.2169e-01|   -4.281382|    1.856136|    0.253572|  8.1403e+00|  8.1403e+00|  8.1403e+00|
|         441|  2.2164e-01|   -4.252385|    1.856114|    0.253571|  8.9543e+00|  8.9543e+00|  8.9543e+00|
|         442|  2.2160e-01|   -4.202928|    1.856089|    0.253570|  9.8497e+00|  9.8497e+00|  9.8497e+00|
|         443|  2.2156e-01|   -4.139016|    1.856062|    0.253569|  1.0835e+01|  1.0835e+01|  1.0835e+01|
|         444|  2.2152e-01|   -4.070580|    1.856031|    0.253567|  1.1918e+01|  1.1918e+01|  1.1918e+01|
|         445|  2.2224e-01|   -4.060955|    1.855997|    0.253565|  1.3110e+01|  1.3110e+01|  1.3110e+01|
|         446|  2.2225e-01|   -4.066666|    1.855959|    0.253562|  1.4421e+01|  1.4421e+01|  1.4421e+01|
|         447|  2.2229e-01|   -4.068731|    1.855916|    0.253558|  1.5863e+01|  1.5863e+01|  1.5863e+01|
|         448|  2.2230e-01|   -4.069823|    1.855868|    0.253553|  1.7449e+01|  1.7449e+01|  1.7449e+01|
|         449|  2.2229e-01|   -4.072957|    1.855814|    0.253546|  1.9194e+01|  1.9194e+01|  1.9194e+01|
|         450|  2.2229e-01|   -4.056874|    1.855753|    0.253538|  2.1114e+01|  2.1114e+01|  2.1114e+01|
|         451|  2.2263e-01|   -4.045515|    1.855684|    0.253529|  2.3225e+01|  2.3225e+01|  2.3225e+01|
|         452|  2.2299e-01|   -4.017155|    1.855607|    0.253517|  2.5548e+01|  2.5548e+01|  2.5548e+01|
|         453|  2.2299e-01|   -3.965417|    1.855522|    0.253504|  2.8102e+01|  2.8102e+01|  2.8102e+01|
|         454|  2.2297e-01|   -3.929835|    1.855426|    0.253488|  3.0913e+01|  3.0913e+01|  3.0913e+01|
|         455|  2.2295e-01|   -3.934602|    1.855321|    0.253470|  3.4004e+01|  3.4004e+01|  3.4004e+01|
|         456|  2.2294e-01|   -3.922388|    1.855204|    0.253450|  1.0000e+00|  1.0000e+00|  1.0000e+00|
|         457|  2.2275e-01|   -3.910487|    1.855201|    0.253449|  1.1000e+00|  1.1000e+00|  1.1000e+00|
|         458|  2.2288e-01|   -3.981220|    1.855197|    0.253449|  1.2100e+00|  1.2100e+00|  1.2100e+00|
|         459|  2.2322e-01|   -4.025960|    1.855193|    0.253448|  1.3310e+00|  1.3310e+00|  1.3310e+00|
|         460|  2.2305e-01|   -4.051500|    1.855189|    0.253447|  1.4641e+00|  1.4641e+00|  1.4641e+00|
|         461|  2.2289e-01|   -4.084507|    1.855184|    0.253446|  1.6105e+00|  1.6105e+00|  1.6105e+00|
|         462|  2.2274e-01|   -4.110585|    1.855178|    0.253445|  1.7716e+00|  1.7716e+00|  1.7716e+00|
|         463|  2.2258e-01|   -4.133027|    1.855172|    0.253444|  1.9487e+00|  1.9487e+00|  1.9487e+00|
|         464|  2.2243e-01|   -4.148468|    1.855165|    0.253443|  2.1436e+00|  2.1436e+00|  2.1436e+00|
|         465|  2.2229e-01|   -4.161565|    1.855157|    0.253442|  2.3579e+00|  2.3579e+00|  2.3579e+00|
|         466|  2.2226e-01|   -4.175544|    1.855149|    0.253440|  2.5937e+00|  2.5937e+00|  2.5937e+00|
|         467|  2.2225e-01|   -4.186019|    1.855140|    0.253439|  2.8531e+00|  2.8531e+00|  2.8531e+00|
|         468|  2.2212e-01|   -4.199287|    1.855130|    0.253437|  3.1384e+00|  3.1384e+00|  3.1384e+00|
|         469|  2.2201e-01|   -4.209885|    1.855119|    0.253435|  3.4523e+00|  3.4523e+00|  3.4523e+00|
|         470|  2.2197e-01|   -4.206461|    1.855107|    0.253433|  3.7975e+00|  3.7975e+00|  3.7975e+00|
|         471|  2.2229e-01|   -4.213219|    1.855094|    0.253430|  4.1772e+00|  4.1772e+00|  4.1772e+00|
|         472|  2.2255e-01|   -4.230585|    1.855080|    0.253428|  4.5950e+00|  4.5950e+00|  4.5950e+00|
|         473|  2.2243e-01|   -4.242823|    1.855064|    0.253425|  5.0545e+00|  5.0545e+00|  5.0545e+00|
|         474|  2.2234e-01|   -4.260539|    1.855047|    0.253422|  5.5599e+00|  5.5599e+00|  5.5599e+00|
|         475|  2.2228e-01|   -4.286406|    1.855028|    0.253418|  6.1159e+00|  6.1159e+00|  6.1159e+00|
|         476|  2.2220e-01|   -4.280390|    1.855007|    0.253414|  6.7275e+00|  6.7275e+00|  6.7275e+00|
|         477|  2.2215e-01|   -4.265398|    1.854983|    0.253410|  7.4002e+00|  7.4002e+00|  7.4002e+00|
|         478|  2.2211e-01|   -4.259964|    1.854958|    0.253405|  8.1403e+00|  8.1403e+00|  8.1403e+00|
|         479|  2.2210e-01|   -4.221567|    1.854930|    0.253400|  8.9543e+00|  8.9543e+00|  8.9543e+00|
|         480|  2.2263e-01|   -4.223283|    1.854899|    0.253394|  9.8497e+00|  9.8497e+00|  9.8497e+00|
|         481|  2.2273e-01|   -4.198285|    1.854866|    0.253388|  1.0835e+01|  1.0835e+01|  1.0835e+01|
|         482|  2.2268e-01|   -4.199008|    1.854829|    0.253381|  1.1918e+01|  1.1918e+01|  1.1918e+01|
|         483|  2.2268e-01|   -4.182288|    1.854789|    0.253373|  1.3110e+01|  1.3110e+01|  1.3110e+01|
|         484|  2.2264e-01|   -4.166852|    1.854745|    0.253365|  1.4421e+01|  1.4421e+01|  1.4421e+01|
|         485|  2.2262e-01|   -4.147030|    1.854698|    0.253356|  1.5863e+01|  1.5863e+01|  1.5863e+01|
|         486|  2.2258e-01|   -4.102641|    1.854646|    0.253346|  1.7449e+01|  1.7449e+01|  1.7449e+01|
|         487|  2.2255e-01|   -4.097680|    1.854589|    0.253335|  1.9194e+01|  1.9194e+01|  1.9194e+01|
|         488|  2.2296e-01|   -4.092799|    1.854527|    0.253324|  2.1114e+01|  2.1114e+01|  2.1114e+01|
|         489|  2.2321e-01|   -4.067805|    1.854460|    0.253312|  2.3225e+01|  2.3225e+01|  2.3225e+01|
|         490|  2.2318e-01|   -4.008484|    1.854387|    0.253300|  2.5548e+01|  2.5548e+01|  2.5548e+01|
|         491|  2.2316e-01|   -3.948045|    1.854308|    0.253287|  2.8102e+01|  2.8102e+01|  2.8102e+01|
|         492|  2.2314e-01|   -3.934310|    1.854222|    0.253275|  3.0913e+01|  3.0913e+01|  3.0913e+01|
|         493|  2.2315e-01|   -3.934732|    1.854129|    0.253262|  3.4004e+01|  3.4004e+01|  3.4004e+01|
|         494|  2.2323e-01|   -3.932025|    1.854026|    0.253249|  3.7404e+01|  3.7404e+01|  3.7404e+01|
|         495|  2.2371e-01|   -3.890530|    1.853914|    0.253236|  4.1145e+01|  4.1145e+01|  4.1145e+01|
|         496|  2.2368e-01|   -3.877596|    1.853790|    0.253222|  4.5259e+01|  4.5259e+01|  4.5259e+01|
|         497|  2.2369e-01|   -3.846546|    1.853652|    0.253208|  4.9785e+01|  4.9785e+01|  4.9785e+01|
|         498|  2.2369e-01|   -3.828216|    1.853497|    0.253192|  4.9785e+01|  4.9785e+01|  4.9785e+01|
|         499|  2.2370e-01|   -3.790107|    1.853338|    0.253176|  4.9785e+01|  4.9785e+01|  4.9785e+01|

----------------------------- Solver Exit -------------------------------

Maximum number of iterations reached (ITER = 500) before convergence.
+-----------------------------------------------------------------------+
|      Convergence Field     |     Value    |   Criterion  |  Converged |
+-----------------------------------------------------------------------+
|                  Cauchy[CL]|   1.66144e-05|       < 1e-06|          No|
+-----------------------------------------------------------------------+
-------------------------------------------------------------------------
+-----------------------------------------------------------------------+
|        File Writing Summary       |              Filename             |
+-----------------------------------------------------------------------+
|SU2 binary restart                 |restart_flow.dat                   |

Writing the forces breakdown file (forces_breakdown.dat).
|Paraview                           |flow.vtu                           |

Writing the forces breakdown file (forces_breakdown.dat).
|Paraview surface                   |surface_flow.vtu                   |

Writing the forces breakdown file (forces_breakdown.dat).
+-----------------------------------------------------------------------+

--------------------------- Finalizing Solver ---------------------------
Deleted CNumerics container.
Deleted CIntegration container.
Deleted CSolver container.
Deleted CIteration container.
Deleted CInterface container.
Deleted CGeometry container.
Deleted CFreeFormDefBox class.
Deleted CSurfaceMovement class.
Deleted CVolumetricMovement class.
Deleted CConfig container.
Deleted nInst container.
Deleted COutput class.
-------------------------------------------------------------------------

------------------------- Exit Success (SU2_CFD) ------------------------

