
-------------------------------------------------------------------------
|    ___ _   _ ___                                                      |
|   / __| | | |_  )   Release 8.0.0 "Harrier"                           |
|   \__ \ |_| |/ /                                                      |
|   |___/\___//___|   Suite (Computational Fluid Dynamics Code)         |
|                                                                       |
-------------------------------------------------------------------------
| SU2 Project Website: https://su2code.github.io                        |
|                                                                       |
| The SU2 Project is maintained by the SU2 Foundation                   |
| (http://su2foundation.org)                                            |
-------------------------------------------------------------------------
| Copyright 2012-2023, SU2 Contributors                                 |
|                                                                       |
| SU2 is free software; you can redistribute it and/or                  |
| modify it under the terms of the GNU Lesser General Public            |
| License as published by the Free Software Foundation; either          |
| version 2.1 of the License, or (at your option) any later version.    |
|                                                                       |
| SU2 is distributed in the hope that it will be useful,                |
| but WITHOUT ANY WARRANTY; without even the implied warranty of        |
| MERCHANTABILITY or FITNESS FOR A PARTICULAR PURPOSE. See the GNU      |
| Lesser General Public License for more details.                       |
|                                                                       |
| You should have received a copy of the GNU Lesser General Public      |
| License along with SU2. If not, see <http://www.gnu.org/licenses/>.   |
-------------------------------------------------------------------------

Parsing config file for zone 0

----------------- Physical Case Definition ( Zone 0 ) -------------------
Compressible RANS equations.
Turbulence model: Menter's k-omega SST-2003m with no production modification.
Hybrid RANS/LES: No Hybrid RANS/LES
Mach number: 0.729.
Angle of attack (AoA): 2 deg, and angle of sideslip (AoS): 0 deg.
Reynolds number: 6.5e+06. Reference length 1.
Reading and writing binary SU2 native restart files.
Read flow solution from: restart_flow.dat.
Dimensional simulation.
The reference area is 1 m^2.
The semi-span will be computed using the max y(3D) value.
The reference length is 1 m.
Surface(s) where the force coefficients are evaluated and 
their reference origin for moment computation: 
   - Airfoil (0.25, 0, 0).
   - Flap (0.25, 0, 0).
   - Slat (0.25, 0, 0) m.
Surface(s) plotted in the output file: Airfoil, Flap, Slat.
Input mesh file name: Mesh.su2

--------------- Space Numerical Integration ( Zone 0 ) ------------------
Roe (with entropy fix = 0.001) solver for the flow inviscid terms.
Standard Roe without low-dissipation function.
Second order integration in space, with slope limiter.
Venkatakrishnan slope-limiting method, with constant: 0.03.
The reference element size is: 1. 
Scalar upwind solver for the turbulence model.
First order integration in space.
Average of gradients with correction (viscous flow terms).
Average of gradients with correction (viscous turbulence terms).
Gradient for upwind reconstruction: inverse-distance weighted Least-Squares.
Gradient for viscous and source terms: inverse-distance weighted Least-Squares.

--------------- Time Numerical Integration  ( Zone 0 ) ------------------
Local time stepping (steady state simulation).
Euler implicit method for the flow equations.
FGMRES is used for solving the linear system.
Using a ILU(0) preconditioning.
Convergence criteria of the linear solver: 0.01.
Max number of linear iterations: 5.
CFL adaptation. Factor down: 0.5, factor up: 1.1,
                lower limit: 50, upper limit: 10000,
                acceptable linear residual: 0.01.
Courant-Friedrichs-Lewy number:       20
Euler implicit time integration for the turbulence model.

------------------ Convergence Criteria  ( Zone 0 ) ---------------------
Maximum number of solver subiterations: 500.
Begin convergence monitoring at iteration 10.
Residual minimum value: 1e-14.
Cauchy series min. value: 1e-06.
Number of Cauchy elements: 100.
Begin windowed time average at iteration 0.

-------------------- Output Information ( Zone 0 ) ----------------------
File writing frequency: 
+------------------------------------+
|                     File| Frequency|
+------------------------------------+
|                  RESTART|      1000|
|                 PARAVIEW|      1000|
|         SURFACE_PARAVIEW|      1000|
+------------------------------------+
Writing the convergence history file every 1 inner iterations.
Writing the screen convergence history every 1 inner iterations.
The tabular file format is CSV (.csv).
Convergence history file name: historyThird.
Forces breakdown file name: forces_breakdown.dat.
Surface file name: surface_flow.
Volume file name: flow.
Restart file name: restart_flow.dat.

------------- Config File Boundary Information ( Zone 0 ) ---------------
+-----------------------------------------------------------------------+
|                        Marker Type|                        Marker Name|
+-----------------------------------------------------------------------+
|                          Far-field|                           Farfield|
+-----------------------------------------------------------------------+
|                     Heat flux wall|                            Airfoil|
|                                   |                               Flap|
|                                   |                               Slat|
+-----------------------------------------------------------------------+

-------------------- Output Preprocessing ( Zone 0 ) --------------------

WARNING: SURFACE_PRESSURE_DROP can only be computed for at least 2 surfaces (outlet, inlet, ...)

Screen output fields: INNER_ITER, WALL_TIME, RMS_DENSITY, LIFT, DRAG, LINSOL_ITER, LINSOL_RESIDUAL, MIN_CFL, MAX_CFL, AVG_CFL
  Info: Ignoring the following history output groups:
  RESIDUALS, CFL
History output group(s): INNER_ITER, LIFT, DRAG
Convergence field(s): LIFT
Warning: No (valid) fields chosen for time convergence monitoring. Time convergence monitoring inactive.
  Info: Ignoring the following volume output fields/groups:
  RESIDUALS
Volume output fields: SOLUTION, PRIMITIVE, GRADIENTS, HESSIANS, EIGENVALUES, COORDINATES

------------------- Geometry Preprocessing ( Zone 0 ) -------------------
Two dimensional problem.
90618 grid points before partitioning.
92672 volume elements before partitioning.
4 surface markers.
738 boundary elements in index 0 (Marker = Airfoil).
158 boundary elements in index 1 (Marker = Farfield).
315 boundary elements in index 2 (Marker = Flap).
278 boundary elements in index 3 (Marker = Slat).
Executing the partitioning functions.
Building the graph adjacency structure.
Calling ParMETIS... graph partitioning complete (943 edge cuts).
Distributing ParMETIS coloring.
Rebalancing vertices.
Rebalancing volume element connectivity.
Rebalancing markers and surface elements.
92475 vertices including ghost points. 
93616 interior elements including halo cells. 
5636 triangles.
87980 quadrilaterals.
Establishing MPI communication patterns.
Setting point connectivity.
Renumbering points (Reverse Cuthill McKee Ordering).
Recomputing point connectivity.
Setting element connectivity.
Checking the numerical grid orientation.
All volume elements are correctly orientend.
All surface elements are correctly orientend.
Identifying edges and vertices.
Setting the control volume structure.
Area of the computational grid: 31407.9.
Searching for the closest normal neighbors to the surfaces.
Storing a mapping from global to local point index.
Compute the surface curvature.
Max K: 19556. Mean K: 81.7653. Standard deviation K: 970.708.
Checking for periodicity.
Computing mesh quality statistics for the dual control volumes.
+--------------------------------------------------------------+
|           Mesh Quality Metric|        Minimum|        Maximum|
+--------------------------------------------------------------+
|    Orthogonality Angle (deg.)|        54.9935|             90|
|     CV Face Area Aspect Ratio|        1.00105|        2085.42|
|           CV Sub-Volume Ratio|        1.00001|        18.2889|
+--------------------------------------------------------------+
Finding max control volume width.
Communicating number of neighbors.
Wetted area = 2.56903 m.
Area projection in the x-plane = 0.364693 m, y-plane = 1.14805 m.
Max. coordinate in the x-direction = 1.06769 m, y-direction = 0.0602558 m.
Min. coordinate in the x-direction = -0.0559901 m, y-direction = -0.147724 m.
Computing wall distances.

-------------------- Solver Preprocessing ( Zone 0 ) --------------------
Viscous flow: Computing pressure using the ideal gas law
based on the free-stream temperature and a density computed
from the Reynolds number.
Force coefficients computed using free-stream values.

-- Models:
+------------------------------------------------------------------------------+
|          Viscosity Model|        Conductivity Model|              Fluid Model|
+------------------------------------------------------------------------------+
|               SUTHERLAND|          CONSTANT_PRANDTL|             STANDARD_AIR|
+------------------------------------------------------------------------------+
-- Fluid properties:
+------------------------------------------------------------------------------+
|                  Name|    Dim. value|    Ref. value|      Unit|Non-dim. value|
+------------------------------------------------------------------------------+
|        Ref. Viscosity|     1.716e-05|             1|   N.s/m^2|     1.716e-05|
|      Sutherland Temp.|        273.15|             1|         K|        273.15|
|     Sutherland Const.|         110.4|             1|         K|         110.4|
+------------------------------------------------------------------------------+
|        Prandtl (Lam.)|             -|             -|         -|          0.72|
|       Prandtl (Turb.)|             -|             -|         -|           0.9|
+------------------------------------------------------------------------------+
|          Gas Constant|       287.058|             1|  N.m/kg.K|       287.058|
|      Spec. Heat Ratio|             -|             -|         -|           1.4|
+------------------------------------------------------------------------------+
-- Initial and free-stream conditions:
+------------------------------------------------------------------------------+
|                  Name|    Dim. value|    Ref. value|      Unit|Non-dim. value|
+------------------------------------------------------------------------------+
|       Static Pressure|       38779.2|             1|        Pa|       38779.2|
|               Density|      0.468824|             1|    kg/m^3|      0.468824|
|           Temperature|        288.15|             1|         K|        288.15|
|          Total Energy|        237791|             1|   m^2/s^2|        237791|
|            Velocity-X|       247.925|             1|       m/s|       247.925|
|            Velocity-Y|       8.65775|             1|       m/s|       8.65775|
|    Velocity Magnitude|       248.077|             1|       m/s|       248.077|
+------------------------------------------------------------------------------+
|             Viscosity|    1.7893e-05|             1|   N.s/m^2|    1.7893e-05|
|          Conductivity|             -|             1|   W/m^2.K|             -|
|     Turb. Kin. Energy|       230.782|             1|   m^2/s^2|       230.782|
|     Spec. Dissipation|        604687|             1|       1/s|        604687|
+------------------------------------------------------------------------------+
|           Mach Number|             -|             -|         -|         0.729|
|       Reynolds Number|             -|             -|         -|       6.5e+06|
+------------------------------------------------------------------------------+
Initialize Jacobian structure (Navier-Stokes). MG level: 0.
Initialize Jacobian structure (SST model).

------------------- Numerics Preprocessing ( Zone 0 ) -------------------

----------------- Integration Preprocessing ( Zone 0 ) ------------------

------------------- Iteration Preprocessing ( Zone 0 ) ------------------
Euler/Navier-Stokes/RANS fluid iteration.

------------------------------ Begin Solver -----------------------------

Simulation Run using the Single-zone Driver
WARNING: SU2 was not compiled for an AVX-capable architecture. Performance could be better,
         see https://su2code.github.io/docs_v7/Build-SU2-Linux-MacOS/#compiler-optimizations
+---------------------------------------------------------------------------------------------------------------------------------+
|  Inner_Iter|   Time(sec)|    rms[Rho]|          CL|          CD|Linear_Solve|   LinSolRes|     Min CFL|     Max CFL|     Avg CFL|
+---------------------------------------------------------------------------------------------------------------------------------+
|           0|  1.2720e-01|   -3.790913|    1.853275|    0.253170|           3|   -2.010641|  5.0000e+01|  5.0000e+01|  5.0000e+01|
|           1|  1.4077e-01|   -3.831499|    1.853115|    0.253154|           5|   -1.943709|  5.0000e+01|  5.0000e+01|  5.0000e+01|
|           2|  1.4848e-01|   -3.745488|    1.852954|    0.253139|           5|   -1.946270|  5.0000e+01|  5.0000e+01|  5.0000e+01|
|           3|  1.4964e-01|   -3.703865|    1.852794|    0.253123|           5|   -2.004400|  5.5000e+01|  5.5000e+01|  5.5000e+01|
|           4|  1.5348e-01|   -3.667501|    1.852618|    0.253104|           5|   -1.941429|  5.5000e+01|  5.5000e+01|  5.5000e+01|
|           5|  1.9963e-01|   -3.679184|    1.852442|    0.253084|           5|   -1.950746|  5.5000e+01|  5.5000e+01|  5.5000e+01|
|           6|  2.0043e-01|   -3.698679|    1.852265|    0.253062|           5|   -1.912978|  5.0000e+01|  5.0000e+01|  5.0000e+01|
|           7|  1.9293e-01|   -3.649193|    1.852106|    0.253041|           5|   -2.050162|  5.5000e+01|  5.5000e+01|  5.5000e+01|
|           8|  1.8698e-01|   -3.665767|    1.851934|    0.253018|           5|   -1.913203|  5.0000e+01|  5.0000e+01|  5.0000e+01|
|           9|  1.8211e-01|   -3.607365|    1.851778|    0.252996|           5|   -2.040662|  5.0000e+01|  5.0000e+01|  5.0000e+01|
|          10|  2.0603e-01|   -3.609873|    1.851616|    0.252974|           5|   -0.971942|  5.0000e+01|  5.0000e+01|  5.0000e+01|
|          11|  2.5453e-01|   -3.967568|    1.851463|    0.252955|           5|   -0.747630|  5.0000e+01|  5.0000e+01|  5.0000e+01|
|          12|  2.7127e-01|   -4.093953|    1.851312|    0.252935|           5|   -0.671046|  5.0000e+01|  5.0000e+01|  5.0000e+01|
|          13|  2.8532e-01|   -4.062450|    1.851160|    0.252917|           5|   -0.563400|  5.0000e+01|  5.0000e+01|  5.0000e+01|
|          14|  3.1873e-01|   -4.051690|    1.851020|    0.252900|           5|   -0.483528|  5.0000e+01|  5.0000e+01|  5.0000e+01|
|          15|  3.3263e-01|   -4.030946|    1.850832|    0.252879|           5|   -0.728591|  5.0000e+01|  5.0000e+01|  5.0000e+01|
|          16|  3.4122e-01|   -4.129075|    1.850672|    0.252863|           5|   -0.772588|  5.0000e+01|  5.0000e+01|  5.0000e+01|
|          17|  3.6525e-01|   -4.163486|    1.850563|    0.252853|           5|   -0.552966|  5.0000e+01|  5.0000e+01|  5.0000e+01|
|          18|  3.7044e-01|   -4.106719|    1.850412|    0.252841|           5|   -0.568901|  5.0000e+01|  5.0000e+01|  5.0000e+01|
|          19|  3.7480e-01|   -4.159739|    1.850266|    0.252830|           5|   -0.463735|  5.0000e+01|  5.0000e+01|  5.0000e+01|
|          20|  3.9716e-01|   -4.270258|    1.850118|    0.252820|           5|   -0.502695|  5.0000e+01|  5.0000e+01|  5.0000e+01|
|          21|  4.0232e-01|   -4.342916|    1.849949|    0.252809|           5|   -0.744310|  5.0000e+01|  5.0000e+01|  5.0000e+01|
|          22|  4.0533e-01|   -4.343528|    1.849790|    0.252801|           5|   -0.800847|  5.0000e+01|  5.0000e+01|  5.0000e+01|
|          23|  4.1716e-01|   -4.346574|    1.849625|    0.252792|           5|   -0.783439|  5.0000e+01|  5.0000e+01|  5.0000e+01|
|          24|  4.2349e-01|   -4.267357|    1.849491|    0.252785|           5|   -0.714803|  5.0000e+01|  5.0000e+01|  5.0000e+01|
|          25|  4.2696e-01|   -4.224518|    1.849344|    0.252777|           5|   -0.519674|  5.0000e+01|  5.0000e+01|  5.0000e+01|
|          26|  4.3970e-01|   -4.179846|    1.849205|    0.252768|           5|   -0.641680|  5.0000e+01|  5.0000e+01|  5.0000e+01|
|          27|  4.4164e-01|   -4.277775|    1.849071|    0.252759|           5|   -0.546215|  5.0000e+01|  5.0000e+01|  5.0000e+01|
|          28|  4.4206e-01|   -4.166119|    1.848893|    0.252745|           5|   -0.749433|  5.0000e+01|  5.0000e+01|  5.0000e+01|
|          29|  4.5718e-01|   -4.266540|    1.848738|    0.252732|           5|   -0.679719|  5.0000e+01|  5.0000e+01|  5.0000e+01|
|          30|  4.5916e-01|   -4.136767|    1.848550|    0.252715|           5|   -0.661850|  5.0000e+01|  5.0000e+01|  5.0000e+01|
|          31|  4.6066e-01|   -4.271749|    1.848403|    0.252700|           5|   -0.659650|  5.0000e+01|  5.0000e+01|  5.0000e+01|
|          32|  4.7126e-01|   -4.232349|    1.848209|    0.252680|           5|   -0.696812|  5.0000e+01|  5.0000e+01|  5.0000e+01|
|          33|  4.7176e-01|   -4.311604|    1.848049|    0.252663|           5|   -0.730590|  5.0000e+01|  5.0000e+01|  5.0000e+01|
|          34|  4.7141e-01|   -4.321200|    1.847867|    0.252642|           5|   -0.628113|  5.0000e+01|  5.0000e+01|  5.0000e+01|
|          35|  4.8224e-01|   -4.319087|    1.847716|    0.252624|           5|   -0.571809|  5.0000e+01|  5.0000e+01|  5.0000e+01|
|          36|  4.8215e-01|   -4.335808|    1.847671|    0.252619|           5|   -0.400007|  5.0000e+01|  5.0000e+01|  5.0000e+01|
|          37|  4.8356e-01|   -4.309765|    1.847518|    0.252600|           5|   -0.457681|  5.0000e+01|  5.0000e+01|  5.0000e+01|
|          38|  4.9105e-01|   -4.281877|    1.847392|    0.252584|           5|   -0.370506|  5.0000e+01|  5.0000e+01|  5.0000e+01|
|          39|  4.9079e-01|   -4.322660|    1.847191|    0.252559|           5|   -0.656444|  5.0000e+01|  5.0000e+01|  5.0000e+01|
|          40|  4.9042e-01|   -4.299024|    1.847023|    0.252538|           5|   -0.778059|  5.0000e+01|  5.0000e+01|  5.0000e+01|
|          41|  4.9756e-01|   -4.316627|    1.846852|    0.252517|           5|   -0.556050|  5.0000e+01|  5.0000e+01|  5.0000e+01|
|          42|  4.9639e-01|   -4.285167|    1.846673|    0.252494|           5|   -0.449635|  5.0000e+01|  5.0000e+01|  5.0000e+01|
|          43|  4.9552e-01|   -4.261504|    1.846474|    0.252471|           5|   -0.723405|  5.0000e+01|  5.0000e+01|  5.0000e+01|
|          44|  4.9512e-01|   -4.279953|    1.846264|    0.252446|           5|   -0.695605|  5.0000e+01|  5.0000e+01|  5.0000e+01|
|          45|  5.0070e-01|   -4.302899|    1.846076|    0.252425|           5|   -0.703908|  5.0000e+01|  5.0000e+01|  5.0000e+01|
|          46|  5.0022e-01|   -4.281029|    1.845951|    0.252411|           5|   -0.578355|  5.0000e+01|  5.0000e+01|  5.0000e+01|
|          47|  4.9918e-01|   -4.202725|    1.845754|    0.252391|           5|   -0.835938|  5.0000e+01|  5.0000e+01|  5.0000e+01|
|          48|  5.0471e-01|   -4.302802|    1.845564|    0.252371|           5|   -0.678670|  5.0000e+01|  5.0000e+01|  5.0000e+01|
|          49|  5.0385e-01|   -4.143412|    1.845375|    0.252352|           5|   -0.882879|  5.0000e+01|  5.0000e+01|  5.0000e+01|
|          50|  5.0289e-01|   -4.320355|    1.845181|    0.252334|           5|   -0.908155|  5.0000e+01|  5.0000e+01|  5.0000e+01|
|          51|  5.0229e-01|   -4.362152|    1.845033|    0.252319|           5|   -0.746741|  5.0000e+01|  5.0000e+01|  5.0000e+01|
|          52|  5.0684e-01|   -4.298598|    1.844837|    0.252300|           5|   -0.578401|  5.0000e+01|  5.0000e+01|  5.0000e+01|
|          53|  5.0589e-01|   -4.264089|    1.844643|    0.252282|           5|   -0.731610|  5.0000e+01|  5.0000e+01|  5.0000e+01|
|          54|  5.0557e-01|   -4.294245|    1.844460|    0.252264|           5|   -0.800390|  5.0000e+01|  5.0000e+01|  5.0000e+01|
|          55|  5.0483e-01|   -4.287345|    1.844256|    0.252243|           5|   -0.773082|  5.0000e+01|  5.0000e+01|  5.0000e+01|
|          56|  5.0414e-01|   -4.292328|    1.844081|    0.252226|           5|   -0.735563|  5.0000e+01|  5.0000e+01|  5.0000e+01|
|          57|  5.0940e-01|   -4.281302|    1.843871|    0.252204|           5|   -0.724522|  5.0000e+01|  5.0000e+01|  5.0000e+01|
|          58|  5.0849e-01|   -4.287989|    1.843702|    0.252187|           5|   -0.711259|  5.0000e+01|  5.0000e+01|  5.0000e+01|
|          59|  5.0744e-01|   -4.255234|    1.843533|    0.252169|           5|   -0.492640|  5.0000e+01|  5.0000e+01|  5.0000e+01|
|          60|  5.1234e-01|   -4.199867|    1.843392|    0.252155|           5|   -0.537490|  5.0000e+01|  5.0000e+01|  5.0000e+01|
|          61|  5.1337e-01|   -4.279030|    1.843185|    0.252134|           5|   -0.683652|  5.0000e+01|  5.0000e+01|  5.0000e+01|
|          62|  5.1270e-01|   -4.280018|    1.842986|    0.252114|           5|   -0.633957|  5.0000e+01|  5.0000e+01|  5.0000e+01|
|          63|  5.1485e-01|   -4.162755|    1.842801|    0.252095|           5|   -0.630354|  5.0000e+01|  5.0000e+01|  5.0000e+01|
|          64|  5.1965e-01|   -4.245963|    1.842658|    0.252081|           5|   -0.489076|  5.0000e+01|  5.0000e+01|  5.0000e+01|
|          65|  5.1894e-01|   -4.259181|    1.842596|    0.252075|           5|   -0.322572|  5.0000e+01|  5.0000e+01|  5.0000e+01|
|          66|  5.1824e-01|   -4.242006|    1.842438|    0.252060|           5|   -0.365236|  5.0000e+01|  5.0000e+01|  5.0000e+01|
|          67|  5.2377e-01|   -4.246708|    1.842267|    0.252043|           5|   -0.621448|  5.0000e+01|  5.0000e+01|  5.0000e+01|
|          68|  5.2399e-01|   -4.238675|    1.842078|    0.252026|           5|   -0.636402|  5.0000e+01|  5.0000e+01|  5.0000e+01|
|          69|  5.2309e-01|   -4.207772|    1.841988|    0.252018|           5|   -0.401591|  5.0000e+01|  5.0000e+01|  5.0000e+01|
|          70|  5.2754e-01|   -4.208325|    1.841808|    0.252001|           5|   -0.570709|  5.0000e+01|  5.0000e+01|  5.0000e+01|
|          71|  5.2672e-01|   -4.198290|    1.841616|    0.251983|           5|   -0.597801|  5.0000e+01|  5.0000e+01|  5.0000e+01|
|          72|  5.2619e-01|   -4.208569|    1.841429|    0.251964|           5|   -0.627833|  5.0000e+01|  5.0000e+01|  5.0000e+01|
|          73|  5.3127e-01|   -4.244544|    1.841226|    0.251944|           5|   -0.616312|  5.0000e+01|  5.0000e+01|  5.0000e+01|
|          74|  5.3037e-01|   -4.234938|    1.841046|    0.251925|           5|   -0.564042|  5.0000e+01|  5.0000e+01|  5.0000e+01|
|          75|  5.2943e-01|   -4.163301|    1.840856|    0.251905|           5|   -0.660697|  5.0000e+01|  5.0000e+01|  5.0000e+01|
|          76|  5.3288e-01|   -4.285602|    1.840651|    0.251881|           5|   -0.589680|  5.0000e+01|  5.0000e+01|  5.0000e+01|
|          77|  5.3216e-01|   -4.289813|    1.840478|    0.251860|           5|   -0.621270|  5.0000e+01|  5.0000e+01|  5.0000e+01|
|          78|  5.3146e-01|   -4.243062|    1.840274|    0.251835|           5|   -0.832460|  5.0000e+01|  5.0000e+01|  5.0000e+01|
|          79|  5.3561e-01|   -4.309219|    1.840117|    0.251815|           5|   -0.597480|  5.0000e+01|  5.0000e+01|  5.0000e+01|
|          80|  5.3436e-01|   -4.183163|    1.839915|    0.251789|           5|   -0.757920|  5.0000e+01|  5.0000e+01|  5.0000e+01|
|          81|  5.3326e-01|   -4.232311|    1.839726|    0.251765|           5|   -0.651100|  5.0000e+01|  5.0000e+01|  5.0000e+01|
|          82|  5.3746e-01|   -4.236378|    1.839527|    0.251739|           5|   -0.750573|  5.0000e+01|  5.0000e+01|  5.0000e+01|
|          83|  5.3625e-01|   -4.174400|    1.839367|    0.251719|           5|   -0.687162|  5.0000e+01|  5.0000e+01|  5.0000e+01|
|          84|  5.3511e-01|   -4.082450|    1.839166|    0.251694|           5|   -0.727972|  5.0000e+01|  5.0000e+01|  5.0000e+01|
|          85|  5.3788e-01|   -4.166983|    1.838962|    0.251670|           5|   -0.791173|  5.0000e+01|  5.0000e+01|  5.0000e+01|
|          86|  5.3716e-01|   -4.182907|    1.838832|    0.251655|           5|   -0.484461|  5.0000e+01|  5.0000e+01|  5.0000e+01|
|          87|  5.3932e-01|   -4.108054|    1.838644|    0.251634|           5|   -0.587392|  5.0000e+01|  5.0000e+01|  5.0000e+01|
|          88|  5.3963e-01|   -4.127949|    1.838445|    0.251612|           5|   -0.550214|  5.0000e+01|  5.0000e+01|  5.0000e+01|
|          89|  5.3867e-01|   -4.156310|    1.838276|    0.251595|           5|   -0.500517|  5.0000e+01|  5.0000e+01|  5.0000e+01|
|          90|  5.3784e-01|   -4.122472|    1.838193|    0.251586|           5|   -0.484805|  5.0000e+01|  5.0000e+01|  5.0000e+01|
|          91|  5.4093e-01|   -4.186629|    1.838041|    0.251571|           5|   -0.376861|  5.0000e+01|  5.0000e+01|  5.0000e+01|
|          92|  5.4012e-01|   -4.177162|    1.837956|    0.251563|           5|   -0.417601|  5.0000e+01|  5.0000e+01|  5.0000e+01|
|          93|  5.3949e-01|   -4.133826|    1.837800|    0.251547|           5|   -0.427101|  5.0000e+01|  5.0000e+01|  5.0000e+01|
|          94|  5.4279e-01|   -4.170026|    1.837649|    0.251533|           5|   -0.583274|  5.0000e+01|  5.0000e+01|  5.0000e+01|
|          95|  5.4235e-01|   -4.242888|    1.837547|    0.251523|           5|   -0.565463|  5.0000e+01|  5.0000e+01|  5.0000e+01|
|          96|  5.4449e-01|   -4.216326|    1.837394|    0.251510|           5|   -0.553280|  5.0000e+01|  5.0000e+01|  5.0000e+01|
|          97|  5.4372e-01|   -4.233123|    1.837204|    0.251493|           5|   -0.716581|  5.0000e+01|  5.0000e+01|  5.0000e+01|
|          98|  5.4280e-01|   -4.228613|    1.837037|    0.251479|           5|   -0.726830|  5.0000e+01|  5.0000e+01|  5.0000e+01|
|          99|  5.4519e-01|   -4.191079|    1.836864|    0.251464|           5|   -0.679180|  5.0000e+01|  5.0000e+01|  5.0000e+01|
|         100|  5.4425e-01|   -4.226700|    1.836690|    0.251449|           5|   -0.662753|  5.0000e+01|  5.0000e+01|  5.0000e+01|
|         101|  5.4350e-01|   -4.159914|    1.836510|    0.251433|           5|   -0.601149|  5.0000e+01|  5.0000e+01|  5.0000e+01|
|         102|  5.4585e-01|   -4.190068|    1.836336|    0.251418|           5|   -0.688217|  5.0000e+01|  5.0000e+01|  5.0000e+01|
|         103|  5.4491e-01|   -4.205931|    1.836154|    0.251400|           5|   -0.762683|  5.0000e+01|  5.0000e+01|  5.0000e+01|
|         104|  5.4424e-01|   -4.212209|    1.835971|    0.251382|           5|   -0.791341|  5.0000e+01|  5.0000e+01|  5.0000e+01|
|         105|  5.4611e-01|   -4.239305|    1.835788|    0.251362|           5|   -0.812449|  5.0000e+01|  5.0000e+01|  5.0000e+01|
|         106|  5.4526e-01|   -4.190165|    1.835603|    0.251342|           5|   -0.793020|  5.0000e+01|  5.0000e+01|  5.0000e+01|
|         107|  5.4450e-01|   -4.218269|    1.835417|    0.251321|           5|   -0.563479|  5.0000e+01|  5.0000e+01|  5.0000e+01|
|         108|  5.4534e-01|   -4.213271|    1.835252|    0.251303|           5|   -0.652485|  5.0000e+01|  5.0000e+01|  5.0000e+01|
|         109|  5.4587e-01|   -4.284898|    1.835140|    0.251290|           5|   -0.451333|  5.0000e+01|  5.0000e+01|  5.0000e+01|
|         110|  5.4498e-01|   -4.225330|    1.834969|    0.251271|           5|   -0.530538|  5.0000e+01|  5.0000e+01|  5.0000e+01|
|         111|  5.4425e-01|   -4.235209|    1.834806|    0.251252|           5|   -0.573169|  5.0000e+01|  5.0000e+01|  5.0000e+01|
|         112|  5.4537e-01|   -4.275142|    1.834639|    0.251234|           5|   -0.677626|  5.0000e+01|  5.0000e+01|  5.0000e+01|
|         113|  5.4577e-01|   -4.256302|    1.834502|    0.251220|           5|   -0.678858|  5.0000e+01|  5.0000e+01|  5.0000e+01|
|         114|  5.4499e-01|   -4.300979|    1.834366|    0.251206|           5|   -0.483543|  5.0000e+01|  5.0000e+01|  5.0000e+01|
|         115|  5.4433e-01|   -4.261670|    1.834210|    0.251191|           5|   -0.554764|  5.0000e+01|  5.0000e+01|  5.0000e+01|
|         116|  5.4546e-01|   -4.242363|    1.834055|    0.251177|           5|   -0.720463|  5.0000e+01|  5.0000e+01|  5.0000e+01|
|         117|  5.4463e-01|   -4.286918|    1.833864|    0.251160|           5|   -0.742758|  5.0000e+01|  5.0000e+01|  5.0000e+01|
|         118|  5.4382e-01|   -4.274369|    1.833699|    0.251149|           5|   -0.753009|  5.0000e+01|  5.0000e+01|  5.0000e+01|
|         119|  5.4287e-01|   -4.022593|    1.833601|    0.251141|           5|   -0.524496|  5.0000e+01|  5.0000e+01|  5.0000e+01|
|         120|  5.4451e-01|   -4.049673|    1.833427|    0.251126|           5|   -0.738212|  5.0000e+01|  5.0000e+01|  5.0000e+01|
|         121|  5.4370e-01|   -4.241137|    1.833263|    0.251114|           5|   -0.754346|  5.0000e+01|  5.0000e+01|  5.0000e+01|
|         122|  5.4270e-01|   -4.274587|    1.833154|    0.251106|           5|   -0.477156|  5.0000e+01|  5.0000e+01|  5.0000e+01|
|         123|  5.4432e-01|   -4.170511|    1.833054|    0.251098|           5|   -0.415622|  5.0000e+01|  5.0000e+01|  5.0000e+01|
|         124|  5.4368e-01|   -4.238219|    1.832886|    0.251085|           5|   -0.849708|  5.0000e+01|  5.0000e+01|  5.0000e+01|
|         125|  5.4305e-01|   -4.371865|    1.832736|    0.251073|           5|   -0.793593|  5.0000e+01|  5.0000e+01|  5.0000e+01|
|         126|  5.4512e-01|   -4.338775|    1.832563|    0.251059|           5|   -0.880320|  5.0000e+01|  5.0000e+01|  5.0000e+01|
|         127|  5.4691e-01|   -4.377369|    1.832407|    0.251044|           5|   -0.734815|  5.0000e+01|  5.0000e+01|  5.0000e+01|
|         128|  5.4617e-01|   -4.322660|    1.832268|    0.251031|           5|   -0.763727|  5.0000e+01|  5.0000e+01|  5.0000e+01|
|         129|  5.4552e-01|   -4.406352|    1.832092|    0.251014|           5|   -0.702139|  5.0000e+01|  5.0000e+01|  5.0000e+01|
|         130|  5.4731e-01|   -4.399572|    1.831925|    0.250996|           5|   -0.719367|  5.0000e+01|  5.0000e+01|  5.0000e+01|
|         131|  5.4655e-01|   -4.348765|    1.831766|    0.250979|           5|   -0.708216|  5.0000e+01|  5.0000e+01|  5.0000e+01|
|         132|  5.4592e-01|   -4.360445|    1.831597|    0.250960|           5|   -0.692516|  5.0000e+01|  5.0000e+01|  5.0000e+01|
|         133|  5.4764e-01|   -4.343830|    1.831397|    0.250937|           5|   -0.686451|  5.0000e+01|  5.0000e+01|  5.0000e+01|
|         134|  5.4693e-01|   -4.383248|    1.831245|    0.250920|           5|   -0.805160|  5.0000e+01|  5.0000e+01|  5.0000e+01|
|         135|  5.4625e-01|   -4.358820|    1.831058|    0.250900|           5|   -0.711863|  5.0000e+01|  5.0000e+01|  5.0000e+01|
|         136|  5.4769e-01|   -4.382486|    1.830872|    0.250880|           5|   -0.869504|  5.0000e+01|  5.0000e+01|  5.0000e+01|
|         137|  5.4697e-01|   -4.330635|    1.830746|    0.250867|           5|   -0.511813|  5.0000e+01|  5.0000e+01|  5.0000e+01|
|         138|  5.4605e-01|   -3.994508|    1.830570|    0.250847|           5|   -0.819726|  5.0000e+01|  5.0000e+01|  5.0000e+01|
|         139|  5.4752e-01|   -4.183579|    1.830434|    0.250834|           5|   -0.526749|  5.0000e+01|  5.0000e+01|  5.0000e+01|
|         140|  5.4682e-01|   -4.281964|    1.830241|    0.250814|           5|   -0.869394|  5.0000e+01|  5.0000e+01|  5.0000e+01|
|         141|  5.4610e-01|   -4.327437|    1.830077|    0.250798|           5|   -0.816339|  5.0000e+01|  5.0000e+01|  5.0000e+01|
|         142|  5.4790e-01|   -4.360709|    1.829969|    0.250787|           5|   -0.500302|  5.0000e+01|  5.0000e+01|  5.0000e+01|
|         143|  5.4726e-01|   -4.309922|    1.829843|    0.250775|           5|   -0.460760|  5.0000e+01|  5.0000e+01|  5.0000e+01|
|         144|  5.4662e-01|   -4.378513|    1.829689|    0.250759|           5|   -0.716472|  5.0000e+01|  5.0000e+01|  5.0000e+01|
|         145|  5.4740e-01|   -4.384021|    1.829509|    0.250742|           5|   -0.910530|  5.0000e+01|  5.0000e+01|  5.0000e+01|
|         146|  5.4734e-01|   -4.395916|    1.829332|    0.250727|           5|   -0.746065|  5.0000e+01|  5.0000e+01|  5.0000e+01|
|         147|  5.4678e-01|   -4.280970|    1.829152|    0.250710|           5|   -0.888168|  5.0000e+01|  5.0000e+01|  5.0000e+01|
|         148|  5.4843e-01|   -4.308663|    1.829047|    0.250701|           5|   -0.509021|  5.0000e+01|  5.0000e+01|  5.0000e+01|
|         149|  5.4775e-01|   -4.167262|    1.828875|    0.250686|           5|   -0.868795|  5.0000e+01|  5.0000e+01|  5.0000e+01|
|         150|  5.4720e-01|   -4.412293|    1.828726|    0.250672|           5|   -0.656814|  5.0000e+01|  5.0000e+01|  5.0000e+01|
|         151|  5.4658e-01|   -4.447217|    1.828566|    0.250658|           5|   -0.396290|  5.0000e+01|  5.0000e+01|  5.0000e+01|
|         152|  5.4798e-01|   -4.424863|    1.828387|    0.250642|           5|   -0.532601|  5.0000e+01|  5.0000e+01|  5.0000e+01|
|         153|  5.4741e-01|   -4.376314|    1.828236|    0.250627|           5|   -0.515856|  5.0000e+01|  5.0000e+01|  5.0000e+01|
|         154|  5.4686e-01|   -4.409704|    1.828122|    0.250617|           5|   -0.449040|  5.0000e+01|  5.0000e+01|  5.0000e+01|
|         155|  5.4632e-01|   -4.447275|    1.828016|    0.250608|           5|   -0.433521|  5.0000e+01|  5.0000e+01|  5.0000e+01|
|         156|  5.4719e-01|   -4.488450|    1.827960|    0.250602|           5|   -0.303262|  5.0000e+01|  5.0000e+01|  5.0000e+01|
|         157|  5.4664e-01|   -4.471778|    1.827924|    0.250598|           5|   -0.278561|  5.0000e+01|  5.0000e+01|  5.0000e+01|
|         158|  5.4610e-01|   -4.474224|    1.827801|    0.250586|           5|   -0.337385|  5.0000e+01|  5.0000e+01|  5.0000e+01|
|         159|  5.4743e-01|   -4.453270|    1.827615|    0.250568|           5|   -0.655101|  5.0000e+01|  5.0000e+01|  5.0000e+01|
|         160|  5.4686e-01|   -4.356352|    1.827481|    0.250556|           5|   -0.566338|  5.0000e+01|  5.0000e+01|  5.0000e+01|
|         161|  5.4633e-01|   -4.383030|    1.827425|    0.250549|           5|   -0.577093|  5.0000e+01|  5.0000e+01|  5.0000e+01|
|         162|  5.4582e-01|   -4.475075|    1.827332|    0.250540|           5|   -0.364354|  5.0000e+01|  5.0000e+01|  5.0000e+01|
|         163|  5.4696e-01|   -4.454564|    1.827143|    0.250523|           5|   -0.880956|  5.0000e+01|  5.0000e+01|  5.0000e+01|
|         164|  5.4641e-01|   -4.382029|    1.826967|    0.250504|           5|   -0.934885|  5.0000e+01|  5.0000e+01|  5.0000e+01|
|         165|  5.4585e-01|   -4.432884|    1.826794|    0.250487|           5|   -0.888212|  5.0000e+01|  5.0000e+01|  5.0000e+01|
|         166|  5.4708e-01|   -4.393335|    1.826609|    0.250468|           5|   -0.925357|  5.0000e+01|  5.0000e+01|  5.0000e+01|
|         167|  5.4652e-01|   -4.338166|    1.826433|    0.250452|           5|   -0.963924|  5.0000e+01|  5.0000e+01|  5.0000e+01|
|         168|  5.4585e-01|   -4.389404|    1.826247|    0.250434|           5|   -0.920709|  5.0000e+01|  5.0000e+01|  5.0000e+01|
|         169|  5.4678e-01|   -4.368829|    1.826070|    0.250417|           5|   -0.861432|  5.0000e+01|  5.0000e+01|  5.0000e+01|
|         170|  5.4610e-01|   -4.376451|    1.825907|    0.250404|           5|   -0.939865|  5.0000e+01|  5.0000e+01|  5.0000e+01|
|         171|  5.4547e-01|   -4.392364|    1.825806|    0.250394|           5|   -0.456422|  5.0000e+01|  5.0000e+01|  5.0000e+01|
|         172|  5.4606e-01|   -4.217118|    1.825663|    0.250380|           5|   -0.615328|  5.0000e+01|  5.0000e+01|  5.0000e+01|
|         173|  5.4612e-01|   -4.359997|    1.825489|    0.250363|           5|   -0.730634|  5.0000e+01|  5.0000e+01|  5.0000e+01|
|         174|  5.4560e-01|   -4.303300|    1.825315|    0.250346|           5|   -1.012455|  5.0000e+01|  5.0000e+01|  5.0000e+01|
|         175|  5.4508e-01|   -4.430428|    1.825152|    0.250331|           5|   -0.903187|  5.0000e+01|  5.0000e+01|  5.0000e+01|
|         176|  5.4623e-01|   -4.387256|    1.824977|    0.250314|           5|   -0.804785|  5.0000e+01|  5.0000e+01|  5.0000e+01|
|         177|  5.4565e-01|   -4.409284|    1.824820|    0.250297|           5|   -0.833670|  5.0000e+01|  5.0000e+01|  5.0000e+01|
|         178|  5.4514e-01|   -4.396139|    1.824633|    0.250334|           5|   -0.784815|  5.0000e+01|  5.0000e+01|  5.0000e+01|
|         179|  5.4470e-01|   -4.449677|    1.824495|    0.250269|           5|   -0.837681|  5.0000e+01|  5.0000e+01|  5.0000e+01|
|         180|  5.4425e-01|   -4.462710|    1.824331|    0.250249|           5|   -0.875465|  5.0000e+01|  5.0000e+01|  5.0000e+01|
|         181|  5.4546e-01|   -4.414316|    1.824172|    0.250232|           5|   -0.764926|  5.0000e+01|  5.0000e+01|  5.0000e+01|
|         182|  5.4493e-01|   -4.378172|    1.824023|    0.250217|           5|   -0.738605|  5.0000e+01|  5.0000e+01|  5.0000e+01|
|         183|  5.4440e-01|   -4.305571|    1.823841|    0.250198|           5|   -0.782771|  5.0000e+01|  5.0000e+01|  5.0000e+01|
|         184|  5.4392e-01|   -4.388917|    1.823670|    0.250180|           5|   -0.957893|  5.0000e+01|  5.0000e+01|  5.0000e+01|
|         185|  5.4508e-01|   -4.391805|    1.823546|    0.250169|           5|   -0.555907|  5.0000e+01|  5.0000e+01|  5.0000e+01|
|         186|  5.4443e-01|   -4.318423|    1.823395|    0.250154|           5|   -0.514996|  5.0000e+01|  5.0000e+01|  5.0000e+01|
|         187|  5.4382e-01|   -4.268316|    1.823226|    0.250138|           5|   -0.808128|  5.0000e+01|  5.0000e+01|  5.0000e+01|
|         188|  5.4462e-01|   -4.337271|    1.823064|    0.250123|           5|   -0.740390|  5.0000e+01|  5.0000e+01|  5.0000e+01|
|         189|  5.4417e-01|   -4.310684|    1.822892|    0.250108|           5|   -0.741516|  5.0000e+01|  5.0000e+01|  5.0000e+01|
|         190|  5.4362e-01|   -4.258255|    1.822701|    0.250092|           5|   -0.720431|  5.0000e+01|  5.0000e+01|  5.0000e+01|
|         191|  5.4316e-01|   -4.285158|    1.822550|    0.250079|           5|   -0.652105|  5.0000e+01|  5.0000e+01|  5.0000e+01|
|         192|  5.4410e-01|   -4.300341|    1.822388|    0.250067|           5|   -0.676287|  5.0000e+01|  5.0000e+01|  5.0000e+01|
|         193|  5.4369e-01|   -4.331867|    1.822228|    0.250055|           5|   -0.748450|  5.0000e+01|  5.0000e+01|  5.0000e+01|
|         194|  5.4319e-01|   -4.338834|    1.822076|    0.250044|           5|   -0.765025|  5.0000e+01|  5.0000e+01|  5.0000e+01|
|         195|  5.4256e-01|   -4.247649|    1.821929|    0.250033|           5|   -0.733222|  5.0000e+01|  5.0000e+01|  5.0000e+01|
|         196|  5.4244e-01|   -4.259181|    1.821773|    0.250020|           5|   -0.703029|  5.0000e+01|  5.0000e+01|  5.0000e+01|
|         197|  5.4309e-01|   -4.267017|    1.821620|    0.250008|           5|   -0.703627|  5.0000e+01|  5.0000e+01|  5.0000e+01|
|         198|  5.4257e-01|   -4.262227|    1.821483|    0.249997|           5|   -0.708725|  5.0000e+01|  5.0000e+01|  5.0000e+01|
|         199|  5.4205e-01|   -4.257519|    1.821328|    0.249983|           5|   -0.754508|  5.0000e+01|  5.0000e+01|  5.0000e+01|
|         200|  5.4284e-01|   -4.254406|    1.821164|    0.249968|           5|   -0.805379|  5.0000e+01|  5.0000e+01|  5.0000e+01|
|         201|  5.4256e-01|   -4.211916|    1.821077|    0.249960|           5|   -0.504777|  5.0000e+01|  5.0000e+01|  5.0000e+01|
|         202|  5.4206e-01|   -4.099194|    1.820916|    0.249943|           5|   -0.684936|  5.0000e+01|  5.0000e+01|  5.0000e+01|
|         203|  5.4163e-01|   -4.229302|    1.820774|    0.249928|           5|   -0.774205|  5.0000e+01|  5.0000e+01|  5.0000e+01|
|         204|  5.4254e-01|   -4.244936|    1.820624|    0.249914|           5|   -0.827214|  5.0000e+01|  5.0000e+01|  5.0000e+01|
|         205|  5.4204e-01|   -4.348963|    1.820511|    0.249903|           5|   -0.598577|  5.0000e+01|  5.0000e+01|  5.0000e+01|
|         206|  5.4156e-01|   -4.261262|    1.820363|    0.249888|           5|   -0.804921|  5.0000e+01|  5.0000e+01|  5.0000e+01|
|         207|  5.4230e-01|   -4.352141|    1.820200|    0.249871|           5|   -0.765304|  5.0000e+01|  5.0000e+01|  5.0000e+01|
|         208|  5.4180e-01|   -4.338251|    1.820052|    0.249857|           5|   -0.814739|  5.0000e+01|  5.0000e+01|  5.0000e+01|
|         209|  5.4136e-01|   -4.444164|    1.819900|    0.249842|           5|   -0.723167|  5.0000e+01|  5.0000e+01|  5.0000e+01|
|         210|  5.4087e-01|   -4.378269|    1.819758|    0.249829|           5|   -0.623377|  5.0000e+01|  5.0000e+01|  5.0000e+01|
|         211|  5.4165e-01|   -4.300624|    1.819608|    0.249815|           5|   -0.576170|  5.0000e+01|  5.0000e+01|  5.0000e+01|
|         212|  5.4106e-01|   -4.238350|    1.819435|    0.249799|           5|   -0.808328|  5.0000e+01|  5.0000e+01|  5.0000e+01|
|         213|  5.4071e-01|   -4.304625|    1.819273|    0.249784|           5|   -0.780508|  5.0000e+01|  5.0000e+01|  5.0000e+01|
|         214|  5.4023e-01|   -4.336979|    1.819105|    0.249769|           5|   -0.728647|  5.0000e+01|  5.0000e+01|  5.0000e+01|
|         215|  5.3987e-01|   -4.338954|    1.818955|    0.249755|           5|   -0.638329|  5.0000e+01|  5.0000e+01|  5.0000e+01|
|         216|  5.4074e-01|   -4.436936|    1.818801|    0.249741|           5|   -0.620141|  5.0000e+01|  5.0000e+01|  5.0000e+01|
|         217|  5.4015e-01|   -4.413911|    1.818768|    0.249738|           5|   -0.571228|  5.0000e+01|  5.0000e+01|  5.0000e+01|
|         218|  5.3958e-01|   -4.328287|    1.818613|    0.249723|           5|   -0.888071|  5.0000e+01|  5.0000e+01|  5.0000e+01|
|         219|  5.3920e-01|   -4.355558|    1.818456|    0.249708|           5|   -0.907136|  5.0000e+01|  5.0000e+01|  5.0000e+01|
|         220|  5.4054e-01|   -4.428166|    1.818300|    0.249691|           5|   -0.904009|  5.0000e+01|  5.0000e+01|  5.0000e+01|
|         221|  5.4009e-01|   -4.395862|    1.818140|    0.249673|           5|   -0.914593|  5.0000e+01|  5.0000e+01|  5.0000e+01|
|         222|  5.3971e-01|   -4.425708|    1.817979|    0.249654|           5|   -0.784418|  5.0000e+01|  5.0000e+01|  5.0000e+01|
|         223|  5.4016e-01|   -4.413323|    1.817818|    0.249635|           5|   -0.696640|  5.0000e+01|  5.0000e+01|  5.0000e+01|
|         224|  5.4064e-01|   -4.380401|    1.817662|    0.249615|           5|   -0.608528|  5.0000e+01|  5.0000e+01|  5.0000e+01|
|         225|  5.4027e-01|   -4.402106|    1.817498|    0.249595|           5|   -0.681875|  5.0000e+01|  5.0000e+01|  5.0000e+01|
|         226|  5.3993e-01|   -4.486266|    1.817364|    0.249578|           5|   -0.511855|  5.0000e+01|  5.0000e+01|  5.0000e+01|
|         227|  5.4123e-01|   -4.554240|    1.817207|    0.249559|           5|   -0.537565|  5.0000e+01|  5.0000e+01|  5.0000e+01|
|         228|  5.4082e-01|   -4.558132|    1.817114|    0.249549|           5|   -0.451966|  5.0000e+01|  5.0000e+01|  5.0000e+01|
|         229|  5.4049e-01|   -4.567744|    1.817033|    0.249541|           5|   -0.392092|  5.0000e+01|  5.0000e+01|  5.0000e+01|
|         230|  5.4043e-01|   -4.551594|    1.816966|    0.249533|           5|   -0.583266|  5.0000e+01|  5.0000e+01|  5.0000e+01|
|         231|  5.4147e-01|   -4.536723|    1.816815|    0.249592|           5|   -0.348937|  5.0000e+01|  5.0000e+01|  5.0000e+01|
|         232|  5.4113e-01|   -4.491315|    1.816723|    0.249531|           5|   -0.413639|  5.0000e+01|  5.0000e+01|  5.0000e+01|
|         233|  5.4073e-01|   -4.520542|    1.816548|    0.249494|           5|   -0.761632|  5.0000e+01|  5.0000e+01|  5.0000e+01|
|         234|  5.4175e-01|   -4.435508|    1.816374|    0.249480|           5|   -0.930179|  5.0000e+01|  5.0000e+01|  5.0000e+01|
|         235|  5.4130e-01|   -4.461398|    1.816225|    0.249468|           5|   -0.807429|  5.0000e+01|  5.0000e+01|  5.0000e+01|
|         236|  5.4093e-01|   -4.469162|    1.816072|    0.249456|           5|   -1.023676|  5.0000e+01|  5.0000e+01|  5.0000e+01|
|         237|  5.4171e-01|   -4.491666|    1.815921|    0.249443|           5|   -1.199948|  5.0000e+01|  5.0000e+01|  5.0000e+01|
|         238|  5.4133e-01|   -4.496451|    1.815758|    0.249431|           5|   -1.084881|  5.0000e+01|  5.0000e+01|  5.0000e+01|
|         239|  5.4090e-01|   -4.531190|    1.815626|    0.249420|           5|   -0.718160|  5.0000e+01|  5.0000e+01|  5.0000e+01|
|         240|  5.4047e-01|   -4.409384|    1.815469|    0.249406|           5|   -0.556650|  5.0000e+01|  5.0000e+01|  5.0000e+01|
|         241|  5.4138e-01|   -4.343789|    1.815400|    0.249400|           5|   -0.480752|  5.0000e+01|  5.0000e+01|  5.0000e+01|
|         242|  5.4102e-01|   -4.393772|    1.815274|    0.249388|           5|   -0.486481|  5.0000e+01|  5.0000e+01|  5.0000e+01|
|         243|  5.4067e-01|   -4.486154|    1.815136|    0.249375|           5|   -0.624332|  5.0000e+01|  5.0000e+01|  5.0000e+01|
|         244|  5.4030e-01|   -4.417093|    1.814983|    0.249360|           5|   -0.937164|  5.0000e+01|  5.0000e+01|  5.0000e+01|
|         245|  5.4105e-01|   -4.526351|    1.814826|    0.249345|           5|   -0.773188|  5.0000e+01|  5.0000e+01|  5.0000e+01|
|         246|  5.4068e-01|   -4.478959|    1.814674|    0.249328|           5|   -0.809534|  5.0000e+01|  5.0000e+01|  5.0000e+01|
|         247|  5.4034e-01|   -4.468153|    1.814519|    0.249311|           5|   -0.934687|  5.0000e+01|  5.0000e+01|  5.0000e+01|
|         248|  5.4118e-01|   -4.446639|    1.814364|    0.249295|           5|   -0.791851|  5.0000e+01|  5.0000e+01|  5.0000e+01|
|         249|  5.4075e-01|   -4.408713|    1.814210|    0.249278|           5|   -0.794670|  5.0000e+01|  5.0000e+01|  5.0000e+01|
|         250|  5.4041e-01|   -4.446634|    1.814065|    0.249261|           5|   -0.738181|  5.0000e+01|  5.0000e+01|  5.0000e+01|
|         251|  5.4004e-01|   -4.414223|    1.813952|    0.249247|           5|   -0.768124|  5.0000e+01|  5.0000e+01|  5.0000e+01|
|         252|  5.3964e-01|   -4.434053|    1.813788|    0.249228|           5|   -0.913090|  5.0000e+01|  5.0000e+01|  5.0000e+01|
|         253|  5.4051e-01|   -4.451149|    1.813630|    0.249208|           5|   -0.863129|  5.0000e+01|  5.0000e+01|  5.0000e+01|
|         254|  5.4012e-01|   -4.352102|    1.813464|    0.249186|           5|   -0.723475|  5.0000e+01|  5.0000e+01|  5.0000e+01|
|         255|  5.3976e-01|   -4.394294|    1.813310|    0.249166|           5|   -0.741305|  5.0000e+01|  5.0000e+01|  5.0000e+01|
|         256|  5.3936e-01|   -4.381998|    1.813159|    0.249146|           5|   -0.788845|  5.0000e+01|  5.0000e+01|  5.0000e+01|
|         257|  5.4031e-01|   -4.445761|    1.813003|    0.249125|           5|   -0.744705|  5.0000e+01|  5.0000e+01|  5.0000e+01|
|         258|  5.4002e-01|   -4.426952|    1.812873|    0.249110|           5|   -0.691951|  5.0000e+01|  5.0000e+01|  5.0000e+01|
|         259|  5.3969e-01|   -4.386513|    1.812713|    0.249089|           5|   -0.574990|  5.0000e+01|  5.0000e+01|  5.0000e+01|
|         260|  5.4017e-01|   -4.393608|    1.812579|    0.249074|           5|   -0.667607|  5.0000e+01|  5.0000e+01|  5.0000e+01|
|         261|  5.4057e-01|   -4.445914|    1.812422|    0.249057|           5|   -0.707568|  5.0000e+01|  5.0000e+01|  5.0000e+01|
|         262|  5.4022e-01|   -4.423952|    1.812274|    0.249044|           5|   -0.732833|  5.0000e+01|  5.0000e+01|  5.0000e+01|
|         263|  5.3993e-01|   -4.435920|    1.812112|    0.249029|           5|   -0.811530|  5.0000e+01|  5.0000e+01|  5.0000e+01|
|         264|  5.4113e-01|   -4.472599|    1.811994|    0.249018|           5|   -0.752645|  5.0000e+01|  5.0000e+01|  5.0000e+01|
|         265|  5.4078e-01|   -4.475069|    1.811844|    0.249006|           5|   -0.657028|  5.0000e+01|  5.0000e+01|  5.0000e+01|
|         266|  5.4046e-01|   -4.408880|    1.811694|    0.248993|           5|   -0.935407|  5.0000e+01|  5.0000e+01|  5.0000e+01|
|         267|  5.4087e-01|   -4.492188|    1.811586|    0.248984|           5|   -0.588018|  5.0000e+01|  5.0000e+01|  5.0000e+01|
|         268|  5.4096e-01|   -4.437659|    1.811456|    0.248976|           5|   -0.826566|  5.0000e+01|  5.0000e+01|  5.0000e+01|
|         269|  5.4067e-01|   -4.523931|    1.811306|    0.248963|           5|   -0.972200|  5.0000e+01|  5.0000e+01|  5.0000e+01|
|         270|  5.4104e-01|   -4.578029|    1.811155|    0.248953|           5|   -0.852795|  5.0000e+01|  5.0000e+01|  5.0000e+01|
|         271|  5.4107e-01|   -4.506463|    1.811031|    0.248945|           5|   -0.965433|  5.0000e+01|  5.0000e+01|  5.0000e+01|
|         272|  5.4075e-01|   -4.533056|    1.810890|    0.248935|           5|   -0.981334|  5.0000e+01|  5.0000e+01|  5.0000e+01|
|         273|  5.4043e-01|   -4.573684|    1.810750|    0.248925|           5|   -0.950672|  5.0000e+01|  5.0000e+01|  5.0000e+01|
|         274|  5.4110e-01|   -4.556431|    1.810644|    0.248917|           5|   -0.702780|  5.0000e+01|  5.0000e+01|  5.0000e+01|
|         275|  5.4079e-01|   -4.428867|    1.810514|    0.248907|           5|   -0.865677|  5.0000e+01|  5.0000e+01|  5.0000e+01|
|         276|  5.4051e-01|   -4.498916|    1.810417|    0.248899|           5|   -0.564305|  5.0000e+01|  5.0000e+01|  5.0000e+01|
|         277|  5.4023e-01|   -4.555828|    1.810277|    0.248887|           5|   -0.548757|  5.0000e+01|  5.0000e+01|  5.0000e+01|
|         278|  5.4084e-01|   -4.509684|    1.810167|    0.248875|           5|   -0.757118|  5.0000e+01|  5.0000e+01|  5.0000e+01|
|         279|  5.4058e-01|   -4.564716|    1.810012|    0.248861|           5|   -0.547989|  5.0000e+01|  5.0000e+01|  5.0000e+01|
|         280|  5.4024e-01|   -4.590418|    1.809838|    0.248847|           5|   -0.864975|  5.0000e+01|  5.0000e+01|  5.0000e+01|
|         281|  5.4006e-01|   -4.484676|    1.809698|    0.248831|           5|   -1.065323|  5.0000e+01|  5.0000e+01|  5.0000e+01|
|         282|  5.4058e-01|   -4.502961|    1.809549|    0.248814|           5|   -1.026463|  5.0000e+01|  5.0000e+01|  5.0000e+01|
|         283|  5.4016e-01|   -4.506785|    1.809438|    0.248801|           5|   -0.724459|  5.0000e+01|  5.0000e+01|  5.0000e+01|
|         284|  5.3983e-01|   -4.396561|    1.809308|    0.248786|           5|   -1.002327|  5.0000e+01|  5.0000e+01|  5.0000e+01|
|         285|  5.3948e-01|   -4.489753|    1.809177|    0.248771|           5|   -0.769847|  5.0000e+01|  5.0000e+01|  5.0000e+01|
|         286|  5.3915e-01|   -4.343480|    1.809045|    0.248756|           5|   -0.775806|  5.0000e+01|  5.0000e+01|  5.0000e+01|
|         287|  5.3979e-01|   -4.389462|    1.808921|    0.248742|           5|   -0.740407|  5.0000e+01|  5.0000e+01|  5.0000e+01|
|         288|  5.3953e-01|   -4.441577|    1.808786|    0.248727|           5|   -0.717984|  5.0000e+01|  5.0000e+01|  5.0000e+01|
|         289|  5.3921e-01|   -4.368474|    1.808646|    0.248712|           5|   -1.014149|  5.0000e+01|  5.0000e+01|  5.0000e+01|
|         290|  5.3956e-01|   -4.512140|    1.808528|    0.248699|           5|   -0.795373|  5.0000e+01|  5.0000e+01|  5.0000e+01|
|         291|  5.4007e-01|   -4.396796|    1.808532|    0.248700|           5|   -0.381209|  5.0000e+01|  5.0000e+01|  5.0000e+01|
|         292|  5.3977e-01|   -4.409506|    1.808534|    0.248700|           5|   -0.280632|  5.0000e+01|  5.0000e+01|  5.0000e+01|
|         293|  5.3950e-01|   -4.419546|    1.808531|    0.248700|           5|   -0.271867|  5.0000e+01|  5.0000e+01|  5.0000e+01|
|         294|  5.4052e-01|   -4.426285|    1.808511|    0.248698|           5|   -0.291415|  5.0000e+01|  5.0000e+01|  5.0000e+01|
|         295|  5.4021e-01|   -4.433849|    1.808437|    0.248690|           5|   -0.348225|  5.0000e+01|  5.0000e+01|  5.0000e+01|
|         296|  5.3995e-01|   -4.193478|    1.808249|    0.248672|           5|   -0.538065|  5.0000e+01|  5.0000e+01|  5.0000e+01|
|         297|  5.4025e-01|   -4.437080|    1.808121|    0.248659|           5|   -0.577740|  5.0000e+01|  5.0000e+01|  5.0000e+01|
|         298|  5.4077e-01|   -4.365037|    1.807981|    0.248648|           5|   -0.836706|  5.0000e+01|  5.0000e+01|  5.0000e+01|
|         299|  5.4051e-01|   -4.532324|    1.807898|    0.248641|           5|   -0.685478|  5.0000e+01|  5.0000e+01|  5.0000e+01|
|         300|  5.4025e-01|   -4.487427|    1.807786|    0.248629|           5|   -0.684323|  5.0000e+01|  5.0000e+01|  5.0000e+01|
|         301|  5.4096e-01|   -4.581218|    1.807644|    0.248615|           5|   -1.042075|  5.0000e+01|  5.0000e+01|  5.0000e+01|
|         302|  5.4066e-01|   -4.561661|    1.807510|    0.248601|           5|   -1.080219|  5.0000e+01|  5.0000e+01|  5.0000e+01|
|         303|  5.4044e-01|   -4.394267|    1.807377|    0.248588|           5|   -1.029567|  5.0000e+01|  5.0000e+01|  5.0000e+01|
|         304|  5.4099e-01|   -4.490825|    1.807240|    0.248573|           5|   -0.983223|  5.0000e+01|  5.0000e+01|  5.0000e+01|
|         305|  5.4066e-01|   -4.485428|    1.807119|    0.248561|           5|   -0.860395|  5.0000e+01|  5.0000e+01|  5.0000e+01|
|         306|  5.4036e-01|   -4.455215|    1.806987|    0.248548|           5|   -0.893286|  5.0000e+01|  5.0000e+01|  5.0000e+01|
|         307|  5.4011e-01|   -4.571971|    1.806896|    0.248538|           5|   -0.751092|  5.0000e+01|  5.0000e+01|  5.0000e+01|
|         308|  5.4055e-01|   -4.514540|    1.806781|    0.248526|           5|   -0.556916|  5.0000e+01|  5.0000e+01|  5.0000e+01|
|         309|  5.4030e-01|   -4.557606|    1.806645|    0.248511|           5|   -0.663660|  5.0000e+01|  5.0000e+01|  5.0000e+01|
|         310|  5.4006e-01|   -4.570666|    1.806615|    0.248524|           5|   -0.614404|  5.0000e+01|  5.0000e+01|  5.0000e+01|
|         311|  5.4071e-01|   -4.587927|    1.806578|    0.248515|           5|   -0.311089|  5.0000e+01|  5.0000e+01|  5.0000e+01|
|         312|  5.4047e-01|   -4.609052|    1.806512|    0.248503|           5|   -0.311892|  5.0000e+01|  5.0000e+01|  5.0000e+01|
|         313|  5.4023e-01|   -4.557504|    1.806404|    0.248487|           5|   -0.357034|  5.0000e+01|  5.0000e+01|  5.0000e+01|
|         314|  5.4030e-01|   -4.518902|    1.806367|    0.248482|           5|   -0.291802|  5.0000e+01|  5.0000e+01|  5.0000e+01|
|         315|  5.4063e-01|   -4.524213|    1.806350|    0.248480|           5|   -0.272300|  5.0000e+01|  5.0000e+01|  5.0000e+01|
|         316|  5.4031e-01|   -4.508230|    1.806223|    0.248464|           5|   -0.495643|  5.0000e+01|  5.0000e+01|  5.0000e+01|
|         317|  5.4006e-01|   -4.458537|    1.806215|    0.248464|           5|   -0.490597|  5.0000e+01|  5.0000e+01|  5.0000e+01|
|         318|  5.4075e-01|   -4.454429|    1.806080|    0.248448|           5|   -0.685915|  5.0000e+01|  5.0000e+01|  5.0000e+01|
|         319|  5.4052e-01|   -4.167837|    1.805946|    0.248433|           5|   -1.097100|  5.0000e+01|  5.0000e+01|  5.0000e+01|
|         320|  5.4024e-01|   -4.470158|    1.805816|    0.248419|           5|   -0.909681|  5.0000e+01|  5.0000e+01|  5.0000e+01|
|         321|  5.4111e-01|   -4.469900|    1.805681|    0.248405|           5|   -0.645859|  5.0000e+01|  5.0000e+01|  5.0000e+01|
|         322|  5.4085e-01|   -4.459574|    1.805554|    0.248393|           5|   -0.669031|  5.0000e+01|  5.0000e+01|  5.0000e+01|
|         323|  5.4056e-01|   -4.439306|    1.805449|    0.248382|           5|   -0.500094|  5.0000e+01|  5.0000e+01|  5.0000e+01|
|         324|  5.4032e-01|   -4.384219|    1.805380|    0.248374|           5|   -0.379689|  5.0000e+01|  5.0000e+01|  5.0000e+01|
|         325|  5.4097e-01|   -4.418746|    1.805253|    0.248362|           5|   -0.550241|  5.0000e+01|  5.0000e+01|  5.0000e+01|
|         326|  5.4074e-01|   -4.511453|    1.805139|    0.248352|           5|   -0.548546|  5.0000e+01|  5.0000e+01|  5.0000e+01|
|         327|  5.4050e-01|   -4.437301|    1.805024|    0.248343|           5|   -0.828063|  5.0000e+01|  5.0000e+01|  5.0000e+01|
|         328|  5.4102e-01|   -4.515376|    1.804902|    0.248333|           5|   -0.928120|  5.0000e+01|  5.0000e+01|  5.0000e+01|
|         329|  5.4074e-01|   -4.569737|    1.804798|    0.248327|           5|   -0.771756|  5.0000e+01|  5.0000e+01|  5.0000e+01|
|         330|  5.4051e-01|   -4.464196|    1.804691|    0.248319|           5|   -0.586982|  5.0000e+01|  5.0000e+01|  5.0000e+01|
|         331|  5.4027e-01|   -4.567094|    1.804581|    0.248310|           5|   -0.583405|  5.0000e+01|  5.0000e+01|  5.0000e+01|
|         332|  5.4071e-01|   -4.643146|    1.804422|    0.248296|           5|   -0.697584|  5.0000e+01|  5.0000e+01|  5.0000e+01|
|         333|  5.4045e-01|   -4.436069|    1.804299|    0.248285|           5|   -1.169291|  5.0000e+01|  5.0000e+01|  5.0000e+01|
|         334|  5.4010e-01|   -4.522431|    1.804170|    0.248272|           5|   -0.848116|  5.0000e+01|  5.0000e+01|  5.0000e+01|
|         335|  5.4077e-01|   -4.442170|    1.804043|    0.248259|           5|   -0.800020|  5.0000e+01|  5.0000e+01|  5.0000e+01|
|         336|  5.4056e-01|   -4.417556|    1.803918|    0.248245|           5|   -0.867105|  5.0000e+01|  5.0000e+01|  5.0000e+01|
|         337|  5.4032e-01|   -4.540162|    1.803826|    0.248235|           5|   -0.447597|  5.0000e+01|  5.0000e+01|  5.0000e+01|
|         338|  5.4008e-01|   -4.369012|    1.803719|    0.248222|           5|   -0.621542|  5.0000e+01|  5.0000e+01|  5.0000e+01|
|         339|  5.3995e-01|   -4.539966|    1.803592|    0.248208|           5|   -0.638013|  5.0000e+01|  5.0000e+01|  5.0000e+01|
|         340|  5.4011e-01|   -4.642593|    1.803464|    0.248194|           5|   -0.914806|  5.0000e+01|  5.0000e+01|  5.0000e+01|
|         341|  5.4126e-01|   -4.637189|    1.803359|    0.248182|           5|   -0.809993|  5.0000e+01|  5.0000e+01|  5.0000e+01|
|         342|  5.4157e-01|   -4.600073|    1.803226|    0.248168|           5|   -0.778576|  5.0000e+01|  5.0000e+01|  5.0000e+01|
|         343|  5.4176e-01|   -4.558505|    1.803109|    0.248158|           5|   -0.914061|  5.0000e+01|  5.0000e+01|  5.0000e+01|
|         344|  5.4167e-01|   -4.533356|    1.802987|    0.248147|           5|   -0.746983|  5.0000e+01|  5.0000e+01|  5.0000e+01|
|         345|  5.4151e-01|   -4.609481|    1.802873|    0.248138|           5|   -0.653963|  5.0000e+01|  5.0000e+01|  5.0000e+01|
|         346|  5.4202e-01|   -4.672890|    1.802732|    0.248128|           5|   -0.544804|  5.0000e+01|  5.0000e+01|  5.0000e+01|
|         347|  5.4202e-01|   -4.327658|    1.802638|    0.248122|           5|   -0.878977|  5.0000e+01|  5.0000e+01|  5.0000e+01|
|         348|  5.4180e-01|   -4.356795|    1.802516|    0.248113|           5|   -0.938478|  5.0000e+01|  5.0000e+01|  5.0000e+01|
|         349|  5.4156e-01|   -4.445993|    1.802399|    0.248106|           5|   -1.015156|  5.0000e+01|  5.0000e+01|  5.0000e+01|
|         350|  5.4238e-01|   -4.575716|    1.802279|    0.248098|           5|   -1.057626|  5.0000e+01|  5.0000e+01|  5.0000e+01|
|         351|  5.4213e-01|   -4.540767|    1.802165|    0.248090|           5|   -1.131990|  5.0000e+01|  5.0000e+01|  5.0000e+01|
|         352|  5.4193e-01|   -4.545885|    1.802050|    0.248082|           5|   -0.964495|  5.0000e+01|  5.0000e+01|  5.0000e+01|
|         353|  5.4165e-01|   -4.496800|    1.801934|    0.248073|           5|   -1.011314|  5.0000e+01|  5.0000e+01|  5.0000e+01|
|         354|  5.4250e-01|   -4.504139|    1.801820|    0.248064|           5|   -0.840653|  5.0000e+01|  5.0000e+01|  5.0000e+01|
|         355|  5.4220e-01|   -4.408414|    1.801715|    0.248055|           5|   -0.719257|  5.0000e+01|  5.0000e+01|  5.0000e+01|
|         356|  5.4194e-01|   -4.416141|    1.801581|    0.248043|           5|   -0.777189|  5.0000e+01|  5.0000e+01|  5.0000e+01|
|         357|  5.4273e-01|   -4.478838|    1.801451|    0.248031|           5|   -0.706047|  5.0000e+01|  5.0000e+01|  5.0000e+01|
|         358|  5.4261e-01|   -4.532578|    1.801340|    0.248020|           5|   -0.804427|  5.0000e+01|  5.0000e+01|  5.0000e+01|
|         359|  5.4242e-01|   -4.456100|    1.801222|    0.248008|           5|   -0.875988|  5.0000e+01|  5.0000e+01|  5.0000e+01|
|         360|  5.4236e-01|   -4.550277|    1.801101|    0.247996|           5|   -0.902142|  5.0000e+01|  5.0000e+01|  5.0000e+01|
|         361|  5.4278e-01|   -4.437867|    1.800978|    0.247984|           5|   -0.927832|  5.0000e+01|  5.0000e+01|  5.0000e+01|
|         362|  5.4253e-01|   -4.523219|    1.800865|    0.247972|           5|   -0.769181|  5.0000e+01|  5.0000e+01|  5.0000e+01|
|         363|  5.4253e-01|   -4.439348|    1.800738|    0.247959|           5|   -0.899231|  5.0000e+01|  5.0000e+01|  5.0000e+01|
|         364|  5.4277e-01|   -4.555524|    1.800610|    0.247947|           5|   -0.864578|  5.0000e+01|  5.0000e+01|  5.0000e+01|
|         365|  5.4244e-01|   -4.535870|    1.800487|    0.247935|           5|   -0.913688|  5.0000e+01|  5.0000e+01|  5.0000e+01|
|         366|  5.4214e-01|   -4.380454|    1.800378|    0.247923|           5|   -0.816229|  5.0000e+01|  5.0000e+01|  5.0000e+01|
|         367|  5.4265e-01|   -4.355236|    1.800270|    0.247914|           5|   -0.637347|  5.0000e+01|  5.0000e+01|  5.0000e+01|
|         368|  5.4237e-01|   -4.380395|    1.800150|    0.247902|           5|   -0.948465|  5.0000e+01|  5.0000e+01|  5.0000e+01|
|         369|  5.4209e-01|   -4.499180|    1.800005|    0.247890|           5|   -0.927731|  5.0000e+01|  5.0000e+01|  5.0000e+01|
|         370|  5.4233e-01|   -4.475559|    1.799890|    0.247880|           5|   -0.950593|  5.0000e+01|  5.0000e+01|  5.0000e+01|
|         371|  5.4232e-01|   -4.400579|    1.799763|    0.247870|           5|   -0.832134|  5.0000e+01|  5.0000e+01|  5.0000e+01|
|         372|  5.4205e-01|   -4.385129|    1.799707|    0.247865|           5|   -0.566171|  5.0000e+01|  5.0000e+01|  5.0000e+01|
|         373|  5.4169e-01|   -4.308617|    1.799588|    0.247855|           5|   -0.618376|  5.0000e+01|  5.0000e+01|  5.0000e+01|
|         374|  5.4232e-01|   -4.323525|    1.799451|    0.247843|           5|   -0.716177|  5.0000e+01|  5.0000e+01|  5.0000e+01|
|         375|  5.4209e-01|   -4.337318|    1.799361|    0.247835|           5|   -0.619960|  5.0000e+01|  5.0000e+01|  5.0000e+01|
|         376|  5.4177e-01|   -4.303277|    1.799226|    0.247822|           5|   -0.838402|  5.0000e+01|  5.0000e+01|  5.0000e+01|
|         377|  5.4224e-01|   -4.421790|    1.799106|    0.247811|           5|   -0.874039|  5.0000e+01|  5.0000e+01|  5.0000e+01|
|         378|  5.4200e-01|   -4.460102|    1.798983|    0.247798|           5|   -0.830519|  5.0000e+01|  5.0000e+01|  5.0000e+01|
|         379|  5.4181e-01|   -4.446276|    1.798831|    0.247782|           5|   -0.859161|  5.0000e+01|  5.0000e+01|  5.0000e+01|
|         380|  5.4240e-01|   -4.468340|    1.798706|    0.247769|           5|   -0.907598|  5.0000e+01|  5.0000e+01|  5.0000e+01|
|         381|  5.4218e-01|   -4.560041|    1.798572|    0.247752|           5|   -0.960981|  5.0000e+01|  5.0000e+01|  5.0000e+01|
|         382|  5.4201e-01|   -4.595049|    1.798459|    0.247738|           5|   -0.888842|  5.0000e+01|  5.0000e+01|  5.0000e+01|
|         383|  5.4179e-01|   -4.580219|    1.798314|    0.247720|           5|   -0.842678|  5.0000e+01|  5.0000e+01|  5.0000e+01|
|         384|  5.4241e-01|   -4.577335|    1.798209|    0.247707|           5|   -0.743326|  5.0000e+01|  5.0000e+01|  5.0000e+01|
|         385|  5.4223e-01|   -4.580757|    1.798090|    0.247692|           5|   -0.468802|  5.0000e+01|  5.0000e+01|  5.0000e+01|
|         386|  5.4207e-01|   -4.664236|    1.798012|    0.247683|           5|   -0.379240|  5.0000e+01|  5.0000e+01|  5.0000e+01|
|         387|  5.4189e-01|   -4.675065|    1.797888|    0.247669|           5|   -0.404444|  5.0000e+01|  5.0000e+01|  5.0000e+01|
|         388|  5.4170e-01|   -4.646407|    1.797677|    0.247643|           5|   -0.610363|  5.0000e+01|  5.0000e+01|  5.0000e+01|
|         389|  5.4222e-01|   -4.325544|    1.797582|    0.247634|           5|   -0.897774|  5.0000e+01|  5.0000e+01|  5.0000e+01|
|         390|  5.4196e-01|   -4.416946|    1.797441|    0.247620|           5|   -0.952095|  5.0000e+01|  5.0000e+01|  5.0000e+01|
|         391|  5.4177e-01|   -4.565736|    1.797309|    0.247606|           5|   -1.081096|  5.0000e+01|  5.0000e+01|  5.0000e+01|
|         392|  5.4208e-01|   -4.645733|    1.797182|    0.247593|           5|   -0.904531|  5.0000e+01|  5.0000e+01|  5.0000e+01|
|         393|  5.4220e-01|   -4.605056|    1.797050|    0.247580|           5|   -0.878042|  5.0000e+01|  5.0000e+01|  5.0000e+01|
|         394|  5.4202e-01|   -4.574451|    1.796930|    0.247569|           5|   -0.826573|  5.0000e+01|  5.0000e+01|  5.0000e+01|
|         395|  5.4176e-01|   -4.502196|    1.796809|    0.247557|           5|   -0.759651|  5.0000e+01|  5.0000e+01|  5.0000e+01|
|         396|  5.4236e-01|   -4.405813|    1.796704|    0.247547|           5|   -0.781618|  5.0000e+01|  5.0000e+01|  5.0000e+01|
|         397|  5.4215e-01|   -4.409010|    1.796596|    0.247537|           5|   -0.731402|  5.0000e+01|  5.0000e+01|  5.0000e+01|
|         398|  5.4198e-01|   -4.564078|    1.796473|    0.247526|           5|   -1.016358|  5.0000e+01|  5.0000e+01|  5.0000e+01|
|         399|  5.4181e-01|   -4.666333|    1.796377|    0.247517|           5|   -0.753778|  5.0000e+01|  5.0000e+01|  5.0000e+01|
|         400|  5.4246e-01|   -4.576465|    1.796316|    0.247511|           5|   -0.569636|  5.0000e+01|  5.0000e+01|  5.0000e+01|
|         401|  5.4227e-01|   -4.677358|    1.796189|    0.247500|           5|   -1.030020|  5.0000e+01|  5.0000e+01|  5.0000e+01|
|         402|  5.4209e-01|   -4.675991|    1.796062|    0.247488|           5|   -1.117289|  5.0000e+01|  5.0000e+01|  5.0000e+01|
|         403|  5.4265e-01|   -4.661573|    1.795938|    0.247476|           5|   -0.820379|  5.0000e+01|  5.0000e+01|  5.0000e+01|
|         404|  5.4248e-01|   -4.522477|    1.795817|    0.247466|           5|   -0.845011|  5.0000e+01|  5.0000e+01|  5.0000e+01|
|         405|  5.4231e-01|   -4.574190|    1.795700|    0.247456|           5|   -0.985273|  5.0000e+01|  5.0000e+01|  5.0000e+01|
|         406|  5.4207e-01|   -4.592485|    1.795581|    0.247445|           5|   -0.893227|  5.0000e+01|  5.0000e+01|  5.0000e+01|
|         407|  5.4260e-01|   -4.568699|    1.795463|    0.247435|           5|   -0.915134|  5.0000e+01|  5.0000e+01|  5.0000e+01|
|         408|  5.4234e-01|   -4.522338|    1.795335|    0.247424|           5|   -1.017865|  5.0000e+01|  5.0000e+01|  5.0000e+01|
|         409|  5.4214e-01|   -4.609961|    1.795215|    0.247415|           5|   -1.154223|  5.0000e+01|  5.0000e+01|  5.0000e+01|
|         410|  5.4252e-01|   -4.684329|    1.795092|    0.247405|           5|   -1.144934|  5.0000e+01|  5.0000e+01|  5.0000e+01|
|         411|  5.4240e-01|   -4.579625|    1.794980|    0.247396|           5|   -1.060031|  5.0000e+01|  5.0000e+01|  5.0000e+01|
|         412|  5.4212e-01|   -4.539505|    1.794863|    0.247386|           5|   -0.899912|  5.0000e+01|  5.0000e+01|  5.0000e+01|
|         413|  5.4212e-01|   -4.524314|    1.794747|    0.247377|           5|   -1.155577|  5.0000e+01|  5.0000e+01|  5.0000e+01|
|         414|  5.4232e-01|   -4.530355|    1.794657|    0.247370|           5|   -0.565706|  5.0000e+01|  5.0000e+01|  5.0000e+01|
|         415|  5.4208e-01|   -4.396971|    1.794539|    0.247358|           5|   -0.955143|  5.0000e+01|  5.0000e+01|  5.0000e+01|
|         416|  5.4184e-01|   -4.521302|    1.794433|    0.247350|           5|   -0.888703|  5.0000e+01|  5.0000e+01|  5.0000e+01|
|         417|  5.4157e-01|   -4.473598|    1.794316|    0.247338|           5|   -0.856055|  5.0000e+01|  5.0000e+01|  5.0000e+01|
|         418|  5.4206e-01|   -4.459115|    1.794198|    0.247328|           5|   -0.983977|  5.0000e+01|  5.0000e+01|  5.0000e+01|
|         419|  5.4176e-01|   -4.359660|    1.794086|    0.247316|           5|   -0.783273|  5.0000e+01|  5.0000e+01|  5.0000e+01|
|         420|  5.4148e-01|   -4.392724|    1.793985|    0.247307|           5|   -0.643303|  5.0000e+01|  5.0000e+01|  5.0000e+01|
|         421|  5.4142e-01|   -4.370401|    1.793888|    0.247297|           5|   -0.527276|  5.0000e+01|  5.0000e+01|  5.0000e+01|
|         422|  5.4167e-01|   -4.420298|    1.793810|    0.247288|           5|   -0.460232|  5.0000e+01|  5.0000e+01|  5.0000e+01|
|         423|  5.4148e-01|   -4.515533|    1.793688|    0.247279|           5|   -1.128287|  5.0000e+01|  5.0000e+01|  5.0000e+01|
|         424|  5.4132e-01|   -4.737251|    1.793586|    0.247268|           5|   -0.869715|  5.0000e+01|  5.0000e+01|  5.0000e+01|
|         425|  5.4181e-01|   -4.731871|    1.793509|    0.247261|           5|   -0.574328|  5.0000e+01|  5.0000e+01|  5.0000e+01|
|         426|  5.4157e-01|   -4.762574|    1.793399|    0.247250|           5|   -0.795782|  5.0000e+01|  5.0000e+01|  5.0000e+01|
|         427|  5.4139e-01|   -4.671336|    1.793291|    0.247240|           5|   -0.655215|  5.0000e+01|  5.0000e+01|  5.0000e+01|
|         428|  5.4122e-01|   -4.555408|    1.793183|    0.247228|           5|   -0.868479|  5.0000e+01|  5.0000e+01|  5.0000e+01|
|         429|  5.4102e-01|   -4.655547|    1.793065|    0.247216|           5|   -1.134691|  5.0000e+01|  5.0000e+01|  5.0000e+01|
|         430|  5.4149e-01|   -4.718618|    1.792939|    0.247203|           5|   -0.935172|  5.0000e+01|  5.0000e+01|  5.0000e+01|
|         431|  5.4130e-01|   -4.584804|    1.792822|    0.247191|           5|   -1.033705|  5.0000e+01|  5.0000e+01|  5.0000e+01|
|         432|  5.4108e-01|   -4.612727|    1.792706|    0.247177|           5|   -1.150790|  5.0000e+01|  5.0000e+01|  5.0000e+01|
|         433|  5.4085e-01|   -4.586464|    1.792624|    0.247168|           5|   -0.838387|  5.0000e+01|  5.0000e+01|  5.0000e+01|
|         434|  5.4144e-01|   -4.562751|    1.792512|    0.247155|           5|   -0.911936|  5.0000e+01|  5.0000e+01|  5.0000e+01|
|         435|  5.4124e-01|   -4.716173|    1.792451|    0.247148|           5|   -0.534312|  5.0000e+01|  5.0000e+01|  5.0000e+01|
|         436|  5.4107e-01|   -4.713819|    1.792331|    0.247135|           5|   -0.528306|  5.0000e+01|  5.0000e+01|  5.0000e+01|
|         437|  5.4166e-01|   -4.772750|    1.792271|    0.247128|           5|   -0.506479|  5.0000e+01|  5.0000e+01|  5.0000e+01|
|         438|  5.4156e-01|   -4.765047|    1.792169|    0.247116|           5|   -0.404559|  5.0000e+01|  5.0000e+01|  5.0000e+01|
|         439|  5.4134e-01|   -4.750230|    1.792036|    0.247102|           5|   -0.973512|  5.0000e+01|  5.0000e+01|  5.0000e+01|
|         440|  5.4111e-01|   -4.625306|    1.791919|    0.247088|           5|   -1.196891|  5.0000e+01|  5.0000e+01|  5.0000e+01|
|         441|  5.4179e-01|   -4.611103|    1.791794|    0.247073|           5|   -1.004094|  5.0000e+01|  5.0000e+01|  5.0000e+01|
|         442|  5.4156e-01|   -4.549114|    1.791676|    0.247061|           5|   -1.040257|  5.0000e+01|  5.0000e+01|  5.0000e+01|
|         443|  5.4135e-01|   -4.580647|    1.791561|    0.247048|           5|   -0.919937|  5.0000e+01|  5.0000e+01|  5.0000e+01|
|         444|  5.4151e-01|   -4.613486|    1.791437|    0.247034|           5|   -0.948904|  5.0000e+01|  5.0000e+01|  5.0000e+01|
|         445|  5.4186e-01|   -4.567064|    1.791323|    0.247022|           5|   -1.034186|  5.0000e+01|  5.0000e+01|  5.0000e+01|
|         446|  5.4168e-01|   -4.589494|    1.791209|    0.247011|           5|   -0.921365|  5.0000e+01|  5.0000e+01|  5.0000e+01|
|         447|  5.4140e-01|   -4.564232|    1.791173|    0.247007|           5|   -0.502079|  5.0000e+01|  5.0000e+01|  5.0000e+01|
|         448|  5.4187e-01|   -4.536633|    1.791063|    0.246996|           5|   -0.998089|  5.0000e+01|  5.0000e+01|  5.0000e+01|
|         449|  5.4160e-01|   -4.550669|    1.790951|    0.246986|           5|   -1.019147|  5.0000e+01|  5.0000e+01|  5.0000e+01|
|         450|  5.4138e-01|   -4.585896|    1.790853|    0.246978|           5|   -0.833276|  5.0000e+01|  5.0000e+01|  5.0000e+01|
|         451|  5.4177e-01|   -4.618493|    1.790744|    0.246969|           5|   -0.755303|  5.0000e+01|  5.0000e+01|  5.0000e+01|
|         452|  5.4159e-01|   -4.616790|    1.790621|    0.246959|           5|   -0.851179|  5.0000e+01|  5.0000e+01|  5.0000e+01|
|         453|  5.4140e-01|   -4.635339|    1.790522|    0.246951|           5|   -0.914468|  5.0000e+01|  5.0000e+01|  5.0000e+01|
|         454|  5.4141e-01|   -4.563459|    1.790410|    0.246943|           5|   -0.818040|  5.0000e+01|  5.0000e+01|  5.0000e+01|
|         455|  5.4165e-01|   -4.458811|    1.790321|    0.246936|           5|   -0.820330|  5.0000e+01|  5.0000e+01|  5.0000e+01|
|         456|  5.4141e-01|   -4.509006|    1.790218|    0.246928|           5|   -0.754530|  5.0000e+01|  5.0000e+01|  5.0000e+01|
|         457|  5.4116e-01|   -4.529499|    1.790112|    0.246920|           5|   -0.902602|  5.0000e+01|  5.0000e+01|  5.0000e+01|
|         458|  5.4090e-01|   -4.492837|    1.790013|    0.246913|           5|   -0.883986|  5.0000e+01|  5.0000e+01|  5.0000e+01|
|         459|  5.4127e-01|   -4.496642|    1.789907|    0.246906|           5|   -0.735739|  5.0000e+01|  5.0000e+01|  5.0000e+01|
|         460|  5.4108e-01|   -4.490942|    1.789796|    0.246898|           5|   -0.738624|  5.0000e+01|  5.0000e+01|  5.0000e+01|
|         461|  5.4086e-01|   -4.541608|    1.789696|    0.246890|           5|   -1.022155|  5.0000e+01|  5.0000e+01|  5.0000e+01|
|         462|  5.4066e-01|   -4.689061|    1.789598|    0.246882|           5|   -0.910510|  5.0000e+01|  5.0000e+01|  5.0000e+01|
|         463|  5.4104e-01|   -4.586999|    1.789487|    0.246872|           5|   -0.820373|  5.0000e+01|  5.0000e+01|  5.0000e+01|
|         464|  5.4088e-01|   -4.606324|    1.789383|    0.246863|           5|   -0.767007|  5.0000e+01|  5.0000e+01|  5.0000e+01|
|         465|  5.4071e-01|   -4.643908|    1.789274|    0.246851|           5|   -1.013779|  5.0000e+01|  5.0000e+01|  5.0000e+01|
|         466|  5.4055e-01|   -4.724670|    1.789169|    0.246840|           5|   -0.762219|  5.0000e+01|  5.0000e+01|  5.0000e+01|
|         467|  5.4093e-01|   -4.613264|    1.789059|    0.246828|           5|   -0.899942|  5.0000e+01|  5.0000e+01|  5.0000e+01|
|         468|  5.4072e-01|   -4.643679|    1.788951|    0.246816|           5|   -1.063296|  5.0000e+01|  5.0000e+01|  5.0000e+01|
|         469|  5.4053e-01|   -4.657425|    1.788851|    0.246805|           5|   -0.812011|  5.0000e+01|  5.0000e+01|  5.0000e+01|
|         470|  5.4037e-01|   -4.632322|    1.788755|    0.246794|           5|   -0.538399|  5.0000e+01|  5.0000e+01|  5.0000e+01|
|         471|  5.4079e-01|   -4.655079|    1.788643|    0.246782|           5|   -0.568554|  5.0000e+01|  5.0000e+01|  5.0000e+01|
|         472|  5.4063e-01|   -4.741040|    1.788541|    0.246772|           5|   -0.876619|  5.0000e+01|  5.0000e+01|  5.0000e+01|
|         473|  5.4045e-01|   -4.753668|    1.788434|    0.246761|           5|   -0.969337|  5.0000e+01|  5.0000e+01|  5.0000e+01|
|         474|  5.4067e-01|   -4.712418|    1.788317|    0.246751|           5|   -0.938567|  5.0000e+01|  5.0000e+01|  5.0000e+01|
|         475|  5.4061e-01|   -4.609132|    1.788217|    0.246741|           5|   -0.999778|  5.0000e+01|  5.0000e+01|  5.0000e+01|
|         476|  5.4044e-01|   -4.633281|    1.788119|    0.246733|           5|   -1.027626|  5.0000e+01|  5.0000e+01|  5.0000e+01|
|         477|  5.4022e-01|   -4.615362|    1.788015|    0.246723|           5|   -0.893432|  5.0000e+01|  5.0000e+01|  5.0000e+01|
|         478|  5.4052e-01|   -4.502859|    1.787923|    0.246715|           5|   -0.889321|  5.0000e+01|  5.0000e+01|  5.0000e+01|
|         479|  5.4033e-01|   -4.510127|    1.787848|    0.246709|           5|   -0.468592|  5.0000e+01|  5.0000e+01|  5.0000e+01|
|         480|  5.4018e-01|   -4.367401|    1.787739|    0.246699|           5|   -0.904459|  5.0000e+01|  5.0000e+01|  5.0000e+01|
|         481|  5.3999e-01|   -4.703148|    1.787634|    0.246689|           5|   -1.021852|  5.0000e+01|  5.0000e+01|  5.0000e+01|
|         482|  5.4026e-01|   -4.728660|    1.787530|    0.246680|           5|   -0.988126|  5.0000e+01|  5.0000e+01|  5.0000e+01|
|         483|  5.4009e-01|   -4.708838|    1.787428|    0.246671|           5|   -0.896189|  5.0000e+01|  5.0000e+01|  5.0000e+01|
|         484|  5.3994e-01|   -4.792730|    1.787316|    0.246660|           5|   -0.536111|  5.0000e+01|  5.0000e+01|  5.0000e+01|
|         485|  5.4035e-01|   -4.731724|    1.787209|    0.246651|           5|   -1.096131|  5.0000e+01|  5.0000e+01|  5.0000e+01|
|         486|  5.4016e-01|   -4.646184|    1.787107|    0.246641|           5|   -1.074417|  5.0000e+01|  5.0000e+01|  5.0000e+01|
|         487|  5.4001e-01|   -4.658773|    1.787038|    0.246635|           5|   -0.754495|  5.0000e+01|  5.0000e+01|  5.0000e+01|
|         488|  5.4048e-01|   -4.679749|    1.786933|    0.246626|           5|   -0.680736|  5.0000e+01|  5.0000e+01|  5.0000e+01|
|         489|  5.4028e-01|   -4.705769|    1.786835|    0.246616|           5|   -0.689056|  5.0000e+01|  5.0000e+01|  5.0000e+01|
|         490|  5.4004e-01|   -4.415187|    1.786735|    0.246606|           5|   -0.888024|  5.0000e+01|  5.0000e+01|  5.0000e+01|
|         491|  5.3988e-01|   -4.519493|    1.786635|    0.246598|           5|   -0.667526|  5.0000e+01|  5.0000e+01|  5.0000e+01|
|         492|  5.4051e-01|   -4.621784|    1.786532|    0.246589|           5|   -0.704685|  5.0000e+01|  5.0000e+01|  5.0000e+01|
|         493|  5.4031e-01|   -4.559494|    1.786441|    0.246582|           5|   -0.757366|  5.0000e+01|  5.0000e+01|  5.0000e+01|
|         494|  5.4012e-01|   -4.556123|    1.786342|    0.246574|           5|   -0.647565|  5.0000e+01|  5.0000e+01|  5.0000e+01|
|         495|  5.4009e-01|   -4.545203|    1.786243|    0.246567|           5|   -0.873057|  5.0000e+01|  5.0000e+01|  5.0000e+01|
|         496|  5.4047e-01|   -4.526574|    1.786160|    0.246561|           5|   -0.817326|  5.0000e+01|  5.0000e+01|  5.0000e+01|
|         497|  5.4027e-01|   -4.512628|    1.786089|    0.246556|           5|   -0.855764|  5.0000e+01|  5.0000e+01|  5.0000e+01|
|         498|  5.4008e-01|   -4.535992|    1.785977|    0.246547|           5|   -0.875053|  5.0000e+01|  5.0000e+01|  5.0000e+01|
|         499|  5.4070e-01|   -4.635930|    1.785890|    0.246540|           5|   -0.755262|  5.0000e+01|  5.0000e+01|  5.0000e+01|

----------------------------- Solver Exit -------------------------------

Maximum number of iterations reached (ITER = 500) before convergence.
+-----------------------------------------------------------------------+
|      Convergence Field     |     Value    |   Criterion  |  Converged |
+-----------------------------------------------------------------------+
|                  Cauchy[CL]|   5.85506e-05|       < 1e-06|          No|
+-----------------------------------------------------------------------+
-------------------------------------------------------------------------
+-----------------------------------------------------------------------+
|        File Writing Summary       |              Filename             |
+-----------------------------------------------------------------------+
|SU2 binary restart                 |restart_flow.dat                   |

Writing the forces breakdown file (forces_breakdown.dat).
|Paraview                           |flow.vtu                           |

Writing the forces breakdown file (forces_breakdown.dat).
|Paraview surface                   |surface_flow.vtu                   |

Writing the forces breakdown file (forces_breakdown.dat).
+-----------------------------------------------------------------------+

--------------------------- Finalizing Solver ---------------------------
Deleted CNumerics container.
Deleted CIntegration container.
Deleted CSolver container.
Deleted CIteration container.
Deleted CInterface container.
Deleted CGeometry container.
Deleted CFreeFormDefBox class.
Deleted CSurfaceMovement class.
Deleted CVolumetricMovement class.
Deleted CConfig container.
Deleted nInst container.
Deleted COutput class.
-------------------------------------------------------------------------

------------------------- Exit Success (SU2_CFD) ------------------------

