
-------------------------------------------------------------------------
|    ___ _   _ ___                                                      |
|   / __| | | |_  )   Release 8.0.0 "Harrier"                           |
|   \__ \ |_| |/ /                                                      |
|   |___/\___//___|   Suite (Computational Fluid Dynamics Code)         |
|                                                                       |
-------------------------------------------------------------------------
| SU2 Project Website: https://su2code.github.io                        |
|                                                                       |
| The SU2 Project is maintained by the SU2 Foundation                   |
| (http://su2foundation.org)                                            |
-------------------------------------------------------------------------
| Copyright 2012-2023, SU2 Contributors                                 |
|                                                                       |
| SU2 is free software; you can redistribute it and/or                  |
| modify it under the terms of the GNU Lesser General Public            |
| License as published by the Free Software Foundation; either          |
| version 2.1 of the License, or (at your option) any later version.    |
|                                                                       |
| SU2 is distributed in the hope that it will be useful,                |
| but WITHOUT ANY WARRANTY; without even the implied warranty of        |
| MERCHANTABILITY or FITNESS FOR A PARTICULAR PURPOSE. See the GNU      |
| Lesser General Public License for more details.                       |
|                                                                       |
| You should have received a copy of the GNU Lesser General Public      |
| License along with SU2. If not, see <http://www.gnu.org/licenses/>.   |
-------------------------------------------------------------------------

Parsing config file for zone 0

----------------- Physical Case Definition ( Zone 0 ) -------------------
Compressible RANS equations.
Turbulence model: Spalart-Allmaras-noft2
Hybrid RANS/LES: No Hybrid RANS/LES
Mach number: 0.734.
Angle of attack (AoA): 2.31 deg, and angle of sideslip (AoS): 0 deg.
Reynolds number: 6.5e+06. Reference length 1.
Fixed CL mode, target value: 0.824.
Reading and writing binary SU2 native restart files.
Read flow solution from: solution_flow.dat.
Dimensional simulation.
The reference area is 1 m^2.
The semi-span will be computed using the max y(3D) value.
The reference length is 1 m.
Reference origin for moment evaluation is (0.25, 0, 0).
Surface(s) where the force coefficients are evaluated: AIRFOIL.

Surface(s) plotted in the output file: AIRFOIL.
Surface(s) affected by the design variables: AIRFOIL.
Input mesh file name: mesh_RAE2822_turb_deform.su2

--------------- Space Numerical Integration ( Zone 0 ) ------------------
Jameson-Schmidt-Turkel scheme (2nd order in space) for the flow inviscid terms.
JST viscous coefficients (2nd & 4th): 0.5, 0.02.
The method includes a grid stretching correction (p = 0.3).
Scalar upwind solver for the turbulence model.
First order integration in space.
Average of gradients with correction (viscous flow terms).
Average of gradients with correction (viscous turbulence terms).
Gradient for viscous and source terms: inverse-distance weighted Least-Squares.

--------------- Time Numerical Integration  ( Zone 0 ) ------------------
Local time stepping (steady state simulation).
Euler implicit method for the flow equations.
FGMRES is used for solving the linear system.
Using a ILU(0) preconditioning.
Convergence criteria of the linear solver: 1e-06.
Max number of linear iterations: 10.
No CFL adaptation.
Courant-Friedrichs-Lewy number:       10
Euler implicit time integration for the turbulence model.

------------------ Convergence Criteria  ( Zone 0 ) ---------------------
Maximum number of solver subiterations: 5500.
Begin convergence monitoring at iteration 10.
Residual minimum value: 1e-12.
Cauchy series min. value: 1e-06.
Number of Cauchy elements: 100.
Begin windowed time average at iteration 0.

-------------------- Output Information ( Zone 0 ) ----------------------
File writing frequency: 
+------------------------------------+
|                     File| Frequency|
+------------------------------------+
|                  RESTART|     10000|
|                 PARAVIEW|     10000|
|         SURFACE_PARAVIEW|     10000|
|              SURFACE_CSV|     10000|
+------------------------------------+
Writing the convergence history file every 1 inner iterations.
Writing the screen convergence history every 1 inner iterations.
The tabular file format is CSV (.csv).
Convergence history file name: history_direct.
Forces breakdown file name: forces_breakdown.dat.
Surface file name: surface_flow.
Volume file name: flow.
Restart file name: restart_flow.dat.

------------- Config File Boundary Information ( Zone 0 ) ---------------
+-----------------------------------------------------------------------+
|                        Marker Type|                        Marker Name|
+-----------------------------------------------------------------------+
|                          Far-field|                           FARFIELD|
+-----------------------------------------------------------------------+
|                     Heat flux wall|                            AIRFOIL|
+-----------------------------------------------------------------------+

-------------------- Output Preprocessing ( Zone 0 ) --------------------

WARNING: SURFACE_PRESSURE_DROP can only be computed for at least 2 surfaces (outlet, inlet, ...)

Screen output fields: INNER_ITER, RMS_DENSITY, RMS_NU_TILDE, LIFT, DRAG
History output group(s): ITER, RMS_RES, AERO_COEFF
Convergence field(s): RMS_DENSITY
Warning: No (valid) fields chosen for time convergence monitoring. Time convergence monitoring inactive.
Volume output fields: COORDINATES, SOLUTION, PRIMITIVE

------------------- Geometry Preprocessing ( Zone 0 ) -------------------
Two dimensional problem.
13937 grid points before partitioning.
22842 volume elements before partitioning.
2 surface markers.
192 boundary elements in index 0 (Marker = AIRFOIL).
40 boundary elements in index 1 (Marker = FARFIELD).
Executing the partitioning functions.
Building the graph adjacency structure.
Calling ParMETIS... graph partitioning complete (831 edge cuts).
Distributing ParMETIS coloring.
Rebalancing vertices.
Rebalancing volume element connectivity.
Rebalancing markers and surface elements.
14875 vertices including ghost points. 
23674 interior elements including halo cells. 
18780 triangles.
4894 quadrilaterals.
Establishing MPI communication patterns.
Setting point connectivity.
Renumbering points (Reverse Cuthill McKee Ordering).
Recomputing point connectivity.
Setting element connectivity.
Checking the numerical grid orientation.
All volume elements are correctly orientend.
All surface elements are correctly orientend.
Identifying edges and vertices.
Setting the control volume structure.
Area of the computational grid: 32209.9.
Searching for the closest normal neighbors to the surfaces.
Storing a mapping from global to local point index.
Compute the surface curvature.
Max K: 158.867. Mean K: 7.31493. Standard deviation K: 21.726.
Checking for periodicity.
Computing mesh quality statistics for the dual control volumes.
+--------------------------------------------------------------+
|           Mesh Quality Metric|        Minimum|        Maximum|
+--------------------------------------------------------------+
|    Orthogonality Angle (deg.)|        75.2882|         89.999|
|     CV Face Area Aspect Ratio|         1.0016|        3358.35|
|           CV Sub-Volume Ratio|        1.00061|        1210.74|
+--------------------------------------------------------------+
Finding max control volume width.
Communicating number of neighbors.
Wetted area = 2.02337 m.
Area projection in the x-plane = 0.123889 m, y-plane = 0.995873 m.
Max. coordinate in the x-direction = 1 m, y-direction = 0.0635944 m.
Min. coordinate in the x-direction = 0 m, y-direction = -0.059361 m.
Computing wall distances.

-------------------- Solver Preprocessing ( Zone 0 ) --------------------
WARNING: AoA in the solution file (2.78254 deg.) +
         AoA offset in mesh file (0 deg.) = 2.78254 deg.
WARNING: SU2 will use the dCD/dCL provided in the direct solution file: 0.0204452.
WARNING: SU2 will use the dCMz/dCL provided in the direct solution file: 0.0314114.
Viscous flow: Computing pressure using the ideal gas law
based on the free-stream temperature and a density computed
from the Reynolds number.
Force coefficients computed using free-stream values.

-- Models:
+------------------------------------------------------------------------------+
|          Viscosity Model|        Conductivity Model|              Fluid Model|
+------------------------------------------------------------------------------+
|               SUTHERLAND|          CONSTANT_PRANDTL|             STANDARD_AIR|
+------------------------------------------------------------------------------+
-- Fluid properties:
+------------------------------------------------------------------------------+
|                  Name|    Dim. value|    Ref. value|      Unit|Non-dim. value|
+------------------------------------------------------------------------------+
|        Ref. Viscosity|     1.716e-05|             1|   N.s/m^2|     1.716e-05|
|      Sutherland Temp.|        273.15|             1|         K|        273.15|
|     Sutherland Const.|         110.4|             1|         K|         110.4|
+------------------------------------------------------------------------------+
|        Prandtl (Lam.)|             -|             -|         -|          0.71|
|       Prandtl (Turb.)|             -|             -|         -|           0.9|
+------------------------------------------------------------------------------+
|          Gas Constant|       287.058|             1|  N.m/kg.K|       287.058|
|      Spec. Heat Ratio|             -|             -|         -|           1.4|
+------------------------------------------------------------------------------+
-- Initial and free-stream conditions:
+------------------------------------------------------------------------------+
|                  Name|    Dim. value|    Ref. value|      Unit|Non-dim. value|
+------------------------------------------------------------------------------+
|       Static Pressure|         38515|             1|        Pa|         38515|
|               Density|      0.465631|             1|    kg/m^3|      0.465631|
|           Temperature|        288.15|             1|         K|        288.15|
|          Total Energy|        237984|             1|   m^2/s^2|        237984|
|            Velocity-X|       249.484|             1|       m/s|       249.484|
|            Velocity-Y|       12.1256|             1|       m/s|       12.1256|
|    Velocity Magnitude|       249.778|             1|       m/s|       249.778|
+------------------------------------------------------------------------------+
|             Viscosity|    1.7893e-05|             1|   N.s/m^2|    1.7893e-05|
|          Conductivity|             -|             1|   W/m^2.K|             -|
|     Turb. Kin. Energy|       233.959|             1|   m^2/s^2|       233.959|
|     Spec. Dissipation|        608834|             1|       1/s|        608834|
+------------------------------------------------------------------------------+
|           Mach Number|             -|             -|         -|         0.734|
|       Reynolds Number|             -|             -|         -|       6.5e+06|
+------------------------------------------------------------------------------+
Initialize Jacobian structure (Navier-Stokes). MG level: 0.
Initialize Jacobian structure (SA model).

------------------- Numerics Preprocessing ( Zone 0 ) -------------------

----------------- Integration Preprocessing ( Zone 0 ) ------------------

------------------- Iteration Preprocessing ( Zone 0 ) ------------------
Euler/Navier-Stokes/RANS fluid iteration.

------------------------------ Begin Solver -----------------------------

Simulation Run using the Single-zone Driver
WARNING: SU2 was not compiled for an AVX-capable architecture. Performance could be better,
         see https://su2code.github.io/docs_v7/Build-SU2-Linux-MacOS/#compiler-optimizations
+----------------------------------------------------------------+
|  Inner_Iter|    rms[Rho]|     rms[nu]|          CL|          CD|
+----------------------------------------------------------------+
|           0|   -4.777908|   -5.932894|    0.824078|    0.012175|
|           1|   -4.827016|   -6.017212|    0.824133|    0.012168|
|           2|   -4.877688|   -6.116134|    0.824166|    0.012161|
|           3|   -4.913315|   -6.226503|    0.824180|    0.012153|
|           4|   -4.936529|   -6.346396|    0.824181|    0.012147|
|           5|   -4.951598|   -6.468236|    0.824177|    0.012143|
|           6|   -4.960601|   -6.569094|    0.824173|    0.012142|
|           7|   -4.964974|   -6.617065|    0.824170|    0.012143|
|           8|   -4.965926|   -6.612586|    0.824170|    0.012145|
|           9|   -4.963956|   -6.587704|    0.824169|    0.012148|
|          10|   -4.958956|   -6.563365|    0.824167|    0.012152|
|          11|   -4.950847|   -6.542901|    0.824162|    0.012156|
|          12|   -4.939989|   -6.522361|    0.824154|    0.012159|
|          13|   -4.927102|   -6.498031|    0.824142|    0.012162|
|          14|   -4.912955|   -6.469716|    0.824126|    0.012164|
|          15|   -4.898147|   -6.440174|    0.824108|    0.012166|
|          16|   -4.883096|   -6.412801|    0.824087|    0.012167|
|          17|   -4.868153|   -6.390012|    0.824065|    0.012167|
|          18|   -4.853724|   -6.372861|    0.824042|    0.012167|
|          19|   -4.840308|   -6.361237|    0.824018|    0.012167|
|          20|   -4.828423|   -6.354185|    0.823996|    0.012166|
|          21|   -4.818496|   -6.350186|    0.823975|    0.012165|
|          22|   -4.810746|   -6.347437|    0.823957|    0.012164|
|          23|   -4.805135|   -6.344238|    0.823942|    0.012163|
|          24|   -4.801381|   -6.339405|    0.823931|    0.012162|
|          25|   -4.799033|   -6.332582|    0.823924|    0.012162|
|          26|   -4.797588|   -6.324280|    0.823921|    0.012163|
|          27|   -4.796596|   -6.315630|    0.823922|    0.012164|
|          28|   -4.795741|   -6.307997|    0.823927|    0.012166|
|          29|   -4.794868|   -6.302653|    0.823935|    0.012168|
|          30|   -4.793957|   -6.300580|    0.823945|    0.012171|
|          31|   -4.793078|   -6.302395|    0.823956|    0.012174|
|          32|   -4.792335|   -6.308331|    0.823968|    0.012178|
|          33|   -4.791828|   -6.318249|    0.823979|    0.012182|
|          34|   -4.791621|   -6.331639|    0.823990|    0.012186|
|          35|   -4.791741|   -6.347618|    0.823998|    0.012190|
|          36|   -4.792181|   -6.364960|    0.824004|    0.012193|
|          37|   -4.792912|   -6.382182|    0.824007|    0.012197|
|          38|   -4.793896|   -6.397735|    0.824008|    0.012200|
|          39|   -4.795092|   -6.410280|    0.824005|    0.012203|
|          40|   -4.796467|   -6.418976|    0.823999|    0.012206|
|          41|   -4.798009|   -6.423638|    0.823991|    0.012209|
|          42|   -4.799722|   -6.424675|    0.823980|    0.012211|
|          43|   -4.801630|   -6.422847|    0.823967|    0.012213|
|          44|   -4.803760|   -6.418985|    0.823953|    0.012215|
|          45|   -4.806141|   -6.413782|    0.823937|    0.012216|
|          46|   -4.808799|   -6.407713|    0.823920|    0.012217|
|          47|   -4.811745|   -6.401055|    0.823903|    0.012219|
|          48|   -4.814974|   -6.393967|    0.823886|    0.012220|
|          49|   -4.818463|   -6.386570|    0.823869|    0.012221|
|          50|   -4.822171|   -6.379014|    0.823853|    0.012221|
|          51|   -4.826047|   -6.371505|    0.823837|    0.012222|
|          52|   -4.830028|   -6.364303|    0.823823|    0.012223|
|          53|   -4.834057|   -6.357690|    0.823809|    0.012223|
|          54|   -4.838078|   -6.351932|    0.823796|    0.012224|
|          55|   -4.842052|   -6.347249|    0.823784|    0.012224|
|          56|   -4.845952|   -6.343790|    0.823772|    0.012225|
|          57|   -4.849768|   -6.341621|    0.823762|    0.012225|
|          58|   -4.853499|   -6.340727|    0.823752|    0.012225|
|          59|   -4.857149|   -6.341017|    0.823742|    0.012224|
|          60|   -4.860723|   -6.342343|    0.823733|    0.012224|
|          61|   -4.864225|   -6.344509|    0.823725|    0.012223|
|          62|   -4.867650|   -6.347299|    0.823716|    0.012223|
|          63|   -4.870993|   -6.350489|    0.823708|    0.012222|
|          64|   -4.874243|   -6.353868|    0.823700|    0.012220|
|          65|   -4.877393|   -6.357254|    0.823693|    0.012219|
|          66|   -4.880436|   -6.360502|    0.823685|    0.012217|
|          67|   -4.883374|   -6.363509|    0.823678|    0.012215|
|          68|   -4.886214|   -6.366215|    0.823671|    0.012214|
|          69|   -4.888969|   -6.368599|    0.823664|    0.012211|
|          70|   -4.891652|   -6.370670|    0.823658|    0.012209|
|          71|   -4.894281|   -6.372461|    0.823651|    0.012207|
|          72|   -4.896867|   -6.374018|    0.823646|    0.012204|
|          73|   -4.899418|   -6.375390|    0.823641|    0.012202|
|          74|   -4.901935|   -6.376628|    0.823636|    0.012199|
|          75|   -4.904414|   -6.377775|    0.823632|    0.012197|
|          76|   -4.906848|   -6.378870|    0.823628|    0.012194|
|          77|   -4.909222|   -6.379940|    0.823625|    0.012191|
|          78|   -4.911524|   -6.381007|    0.823622|    0.012189|
|          79|   -4.913740|   -6.382085|    0.823620|    0.012186|
|          80|   -4.915858|   -6.383185|    0.823618|    0.012184|
|          81|   -4.917865|   -6.384314|    0.823617|    0.012181|
|          82|   -4.919749|   -6.385476|    0.823616|    0.012179|
|          83|   -4.921501|   -6.386677|    0.823615|    0.012176|
|          84|   -4.923113|   -6.387921|    0.823614|    0.012174|
|          85|   -4.924576|   -6.389216|    0.823614|    0.012172|
|          86|   -4.925884|   -6.390572|    0.823613|    0.012170|
|          87|   -4.927034|   -6.392001|    0.823613|    0.012168|
|          88|   -4.928021|   -6.393514|    0.823612|    0.012165|
|          89|   -4.928846|   -6.395127|    0.823611|    0.012163|
|          90|   -4.929509|   -6.396855|    0.823610|    0.012161|
|          91|   -4.930013|   -6.398714|    0.823609|    0.012159|
|          92|   -4.930359|   -6.400721|    0.823607|    0.012157|
|          93|   -4.930553|   -6.402891|    0.823606|    0.012155|
|          94|   -4.930598|   -6.405239|    0.823604|    0.012153|
|          95|   -4.930499|   -6.407779|    0.823601|    0.012151|
|          96|   -4.930259|   -6.410520|    0.823599|    0.012148|
|          97|   -4.929882|   -6.413475|    0.823597|    0.012146|
|          98|   -4.929373|   -6.416649|    0.823594|    0.012144|
|          99|   -4.928735|   -6.420048|    0.823592|    0.012142|
|         100|   -4.927973|   -6.423677|    0.823589|    0.012139|
|         101|   -4.927094|   -6.427537|    0.823586|    0.012167|
+-----------------------------------------------------------------------+
|Fixed CL Mode                           |Value                         |
+-----------------------------------------------------------------------+
|Current CL                              |0.823586                      |
|Target CL                               |0.824                         |
|Previous AOA                            |2.78254                       |
|Changed AoA by                          |0.00205455                    |
+-----------------------------------------------------------------------+
+----------------------------------------------------------------+
|  Inner_Iter|    rms[Rho]|     rms[nu]|          CL|          CD|
+----------------------------------------------------------------+
|         102|   -2.880664|   -6.415149|    0.823584|    0.012165|
|         103|   -3.265274|   -6.427600|    0.823582|    0.012162|
|         104|   -3.509957|   -6.434470|    0.823580|    0.012160|
|         105|   -3.589388|   -6.440455|    0.823579|    0.012158|
|         106|   -3.643499|   -6.446297|    0.823578|    0.012156|
|         107|   -3.713699|   -6.452139|    0.823578|    0.012154|
|         108|   -3.800584|   -6.458023|    0.823578|    0.012152|
|         109|   -3.891325|   -6.463973|    0.823578|    0.012150|
|         110|   -3.969060|   -6.469977|    0.823579|    0.012149|
|         111|   -4.025119|   -6.476013|    0.823580|    0.012147|
|         112|   -4.061246|   -6.482056|    0.823582|    0.012146|
|         113|   -4.081629|   -6.488096|    0.823584|    0.012144|
|         114|   -4.090421|   -6.494133|    0.823587|    0.012143|
|         115|   -4.093604|   -6.500162|    0.823590|    0.012142|
|         116|   -4.097752|   -6.506158|    0.823593|    0.012142|
|         117|   -4.107207|   -6.512089|    0.823597|    0.012141|
|         118|   -4.122928|   -6.517923|    0.823601|    0.012141|
|         119|   -4.143071|   -6.523633|    0.823605|    0.012140|
|         120|   -4.164465|   -6.529199|    0.823609|    0.012140|
|         121|   -4.184430|   -6.534600|    0.823613|    0.012140|
|         122|   -4.202076|   -6.539810|    0.823617|    0.012141|
|         123|   -4.218237|   -6.544798|    0.823621|    0.012141|
|         124|   -4.234320|   -6.549530|    0.823624|    0.012141|
|         125|   -4.251211|   -6.553977|    0.823628|    0.012142|
|         126|   -4.268896|   -6.558120|    0.823631|    0.012143|
|         127|   -4.286688|   -6.561945|    0.823635|    0.012143|
|         128|   -4.303634|   -6.565442|    0.823638|    0.012144|
|         129|   -4.318851|   -6.568614|    0.823640|    0.012145|
|         130|   -4.331707|   -6.571474|    0.823643|    0.012146|
|         131|   -4.341942|   -6.574042|    0.823645|    0.012147|
|         132|   -4.349762|   -6.576342|    0.823647|    0.012148|
|         133|   -4.355843|   -6.578402|    0.823650|    0.012149|
|         134|   -4.361178|   -6.580262|    0.823652|    0.012150|
|         135|   -4.366829|   -6.581947|    0.823654|    0.012151|
|         136|   -4.373679|   -6.583488|    0.823656|    0.012152|
|         137|   -4.382276|   -6.584912|    0.823658|    0.012153|
|         138|   -4.392769|   -6.586244|    0.823660|    0.012154|
|         139|   -4.404909|   -6.587505|    0.823663|    0.012155|
|         140|   -4.418091|   -6.588724|    0.823665|    0.012156|
|         141|   -4.431447|   -6.589924|    0.823668|    0.012158|
|         142|   -4.444009|   -6.591127|    0.823672|    0.012159|
|         143|   -4.454950|   -6.592356|    0.823675|    0.012160|
|         144|   -4.463825|   -6.593635|    0.823679|    0.012161|
|         145|   -4.470708|   -6.594983|    0.823684|    0.012163|
|         146|   -4.476152|   -6.596423|    0.823689|    0.012164|
|         147|   -4.480984|   -6.597978|    0.823695|    0.012166|
|         148|   -4.486058|   -6.599669|    0.823701|    0.012167|
|         149|   -4.492039|   -6.601515|    0.823708|    0.012169|
|         150|   -4.499302|   -6.603531|    0.823716|    0.012171|
|         151|   -4.507907|   -6.605736|    0.823724|    0.012172|
|         152|   -4.517643|   -6.608145|    0.823733|    0.012174|
|         153|   -4.528115|   -6.610769|    0.823742|    0.012176|
|         154|   -4.538844|   -6.613620|    0.823752|    0.012178|
|         155|   -4.549376|   -6.616718|    0.823763|    0.012181|
|         156|   -4.559372|   -6.620078|    0.823775|    0.012183|
|         157|   -4.568660|   -6.623709|    0.823787|    0.012185|
|         158|   -4.577240|   -6.627624|    0.823800|    0.012187|
|         159|   -4.585244|   -6.631839|    0.823813|    0.012190|
|         160|   -4.592882|   -6.636372|    0.823826|    0.012192|
|         161|   -4.600368|   -6.641237|    0.823841|    0.012194|
|         162|   -4.607879|   -6.646446|    0.823855|    0.012197|
|         163|   -4.615530|   -6.652022|    0.823870|    0.012199|
|         164|   -4.623367|   -6.657985|    0.823885|    0.012202|
|         165|   -4.631382|   -6.664355|    0.823900|    0.012204|
|         166|   -4.639535|   -6.671149|    0.823915|    0.012206|
|         167|   -4.647769|   -6.678377|    0.823931|    0.012209|
|         168|   -4.656031|   -6.686046|    0.823946|    0.012211|
|         169|   -4.664274|   -6.694158|    0.823961|    0.012213|
|         170|   -4.672466|   -6.702707|    0.823975|    0.012215|
|         171|   -4.680578|   -6.711678|    0.823989|    0.012217|
|         172|   -4.688587|   -6.721053|    0.824003|    0.012219|
|         173|   -4.696460|   -6.730803|    0.824016|    0.012221|
|         174|   -4.704165|   -6.740892|    0.824029|    0.012223|
|         175|   -4.711655|   -6.751276|    0.824040|    0.012224|
|         176|   -4.718877|   -6.761900|    0.824051|    0.012226|
|         177|   -4.725783|   -6.772686|    0.824061|    0.012227|
|         178|   -4.732318|   -6.783574|    0.824070|    0.012228|
|         179|   -4.738435|   -6.794494|    0.824078|    0.012230|
|         180|   -4.744097|   -6.805359|    0.824085|    0.012231|
|         181|   -4.749281|   -6.816087|    0.824090|    0.012231|
|         182|   -4.753975|   -6.826617|    0.824095|    0.012232|
|         183|   -4.758180|   -6.836888|    0.824098|    0.012233|
|         184|   -4.761911|   -6.846842|    0.824101|    0.012233|
|         185|   -4.765195|   -6.856438|    0.824102|    0.012233|
|         186|   -4.768073|   -6.865642|    0.824102|    0.012233|
|         187|   -4.770595|   -6.874439|    0.824101|    0.012233|
|         188|   -4.772819|   -6.882835|    0.824099|    0.012233|
|         189|   -4.774810|   -6.890852|    0.824096|    0.012233|
|         190|   -4.776638|   -6.898537|    0.824092|    0.012233|
|         191|   -4.778374|   -6.905954|    0.824087|    0.012232|
|         192|   -4.780089|   -6.913180|    0.824081|    0.012232|
|         193|   -4.781852|   -6.920302|    0.824074|    0.012231|
|         194|   -4.783728|   -6.927407|    0.824067|    0.012231|
|         195|   -4.785777|   -6.934585|    0.824059|    0.012230|
|         196|   -4.788053|   -6.941918|    0.824051|    0.012229|
|         197|   -4.790600|   -6.949459|    0.824042|    0.012228|
|         198|   -4.793458|   -6.957234|    0.824032|    0.012227|
|         199|   -4.796659|   -6.965289|    0.824022|    0.012226|
|         200|   -4.800225|   -6.973668|    0.824012|    0.012225|
|         201|   -4.804170|   -6.982437|    0.824002|    0.012223|
+-----------------------------------------------------------------------+
|Fixed CL Mode                           |Value                         |
+-----------------------------------------------------------------------+
|Current CL                              |0.824002                      |
|Target CL                               |0.824                         |
|Previous AOA                            |2.7846                        |
|Changed AoA by                          |-6.08377e-05                  |
+-----------------------------------------------------------------------+
+----------------------------------------------------------------+
|  Inner_Iter|    rms[Rho]|     rms[nu]|          CL|          CD|
+----------------------------------------------------------------+
|         202|   -4.378205|   -6.991519|    0.823991|    0.012221|
|         203|   -4.666081|   -7.001380|    0.823980|    0.012220|
|         204|   -4.776407|   -7.011634|    0.823969|    0.012219|
|         205|   -4.799437|   -7.022284|    0.823959|    0.012217|
|         206|   -4.810484|   -7.033272|    0.823948|    0.012216|
|         207|   -4.821810|   -7.044511|    0.823937|    0.012214|
|         208|   -4.833010|   -7.055890|    0.823926|    0.012213|
|         209|   -4.842373|   -7.067296|    0.823916|    0.012211|
|         210|   -4.849515|   -7.078604|    0.823906|    0.012209|
|         211|   -4.855169|   -7.089680|    0.823896|    0.012208|
|         212|   -4.860161|   -7.100384|    0.823887|    0.012206|
|         213|   -4.864976|   -7.110579|    0.823877|    0.012204|
|         214|   -4.869855|   -7.120140|    0.823869|    0.012203|
|         215|   -4.874948|   -7.128958|    0.823861|    0.012201|
|         216|   -4.880326|   -7.136945|    0.823853|    0.012199|
|         217|   -4.885937|   -7.144045|    0.823846|    0.012198|
|         218|   -4.891587|   -7.150229|    0.823840|    0.012196|
|         219|   -4.897005|   -7.155506|    0.823834|    0.012194|
|         220|   -4.901947|   -7.159905|    0.823829|    0.012193|
|         221|   -4.906277|   -7.163478|    0.823825|    0.012191|
|         222|   -4.909996|   -7.166297|    0.823821|    0.012190|
|         223|   -4.913198|   -7.168459|    0.823819|    0.012188|
|         224|   -4.916024|   -7.170064|    0.823817|    0.012187|
|         225|   -4.918613|   -7.171238|    0.823815|    0.012185|
|         226|   -4.921072|   -7.172115|    0.823815|    0.012184|
|         227|   -4.923473|   -7.172824|    0.823815|    0.012183|
|         228|   -4.925855|   -7.173464|    0.823816|    0.012181|
|         229|   -4.928234|   -7.174146|    0.823818|    0.012180|
|         230|   -4.930606|   -7.174978|    0.823820|    0.012179|
|         231|   -4.932962|   -7.176076|    0.823823|    0.012178|
|         232|   -4.935294|   -7.177532|    0.823827|    0.012178|
|         233|   -4.937603|   -7.179374|    0.823831|    0.012177|
|         234|   -4.939907|   -7.181589|    0.823836|    0.012176|
|         235|   -4.942232|   -7.184160|    0.823842|    0.012175|
|         236|   -4.944607|   -7.187051|    0.823848|    0.012175|
|         237|   -4.947057|   -7.190207|    0.823854|    0.012174|
|         238|   -4.949601|   -7.193581|    0.823861|    0.012174|
|         239|   -4.952245|   -7.197119|    0.823868|    0.012173|
|         240|   -4.954982|   -7.200748|    0.823875|    0.012173|
|         241|   -4.957791|   -7.204387|    0.823883|    0.012173|
|         242|   -4.960647|   -7.207915|    0.823890|    0.012173|
|         243|   -4.963517|   -7.211247|    0.823898|    0.012172|
|         244|   -4.966380|   -7.214308|    0.823906|    0.012172|
|         245|   -4.969212|   -7.217032|    0.823914|    0.012172|
|         246|   -4.972001|   -7.219366|    0.823922|    0.012172|
|         247|   -4.974744|   -7.221269|    0.823929|    0.012172|
|         248|   -4.977442|   -7.222711|    0.823937|    0.012172|
|         249|   -4.980102|   -7.223702|    0.823945|    0.012172|
|         250|   -4.982734|   -7.224284|    0.823952|    0.012172|
|         251|   -4.985350|   -7.224521|    0.823959|    0.012172|
|         252|   -4.987959|   -7.224487|    0.823966|    0.012173|
|         253|   -4.990573|   -7.224271|    0.823973|    0.012173|
|         254|   -4.993205|   -7.223975|    0.823979|    0.012173|
|         255|   -4.995869|   -7.223692|    0.823985|    0.012173|
|         256|   -4.998579|   -7.223522|    0.823991|    0.012173|
|         257|   -5.001351|   -7.223556|    0.823996|    0.012173|
|         258|   -5.004199|   -7.223875|    0.824002|    0.012174|
|         259|   -5.007138|   -7.224557|    0.824007|    0.012174|
|         260|   -5.010179|   -7.225668|    0.824011|    0.012174|
|         261|   -5.013330|   -7.227259|    0.824016|    0.012174|
|         262|   -5.016595|   -7.229355|    0.824020|    0.012174|
|         263|   -5.019976|   -7.231967|    0.824024|    0.012175|
|         264|   -5.023466|   -7.235099|    0.824027|    0.012175|
|         265|   -5.027056|   -7.238748|    0.824031|    0.012175|
|         266|   -5.030732|   -7.242903|    0.824034|    0.012176|
|         267|   -5.034474|   -7.247526|    0.824037|    0.012176|
|         268|   -5.038255|   -7.252595|    0.824040|    0.012176|
|         269|   -5.042047|   -7.258072|    0.824043|    0.012177|
|         270|   -5.045815|   -7.263919|    0.824046|    0.012177|
|         271|   -5.049521|   -7.270098|    0.824048|    0.012178|
|         272|   -5.053124|   -7.276575|    0.824051|    0.012178|
|         273|   -5.056578|   -7.283322|    0.824053|    0.012179|
|         274|   -5.059839|   -7.290320|    0.824056|    0.012179|
|         275|   -5.062860|   -7.297559|    0.824058|    0.012180|
|         276|   -5.065598|   -7.305029|    0.824061|    0.012180|
|         277|   -5.068010|   -7.312729|    0.824063|    0.012181|
|         278|   -5.070057|   -7.320673|    0.824066|    0.012182|
|         279|   -5.071708|   -7.328878|    0.824068|    0.012182|
|         280|   -5.072936|   -7.337366|    0.824071|    0.012183|
|         281|   -5.073719|   -7.346162|    0.824073|    0.012184|
|         282|   -5.074049|   -7.355289|    0.824076|    0.012184|
|         283|   -5.073924|   -7.364767|    0.824078|    0.012185|
|         284|   -5.073350|   -7.374608|    0.824081|    0.012186|
|         285|   -5.072346|   -7.384807|    0.824083|    0.012187|
|         286|   -5.070937|   -7.395350|    0.824086|    0.012188|
|         287|   -5.069154|   -7.406205|    0.824088|    0.012189|
|         288|   -5.067038|   -7.417324|    0.824091|    0.012189|
|         289|   -5.064632|   -7.428641|    0.824093|    0.012190|
|         290|   -5.061986|   -7.440061|    0.824095|    0.012191|
|         291|   -5.059148|   -7.451464|    0.824098|    0.012192|
|         292|   -5.056171|   -7.462723|    0.824100|    0.012193|
|         293|   -5.053106|   -7.473691|    0.824102|    0.012194|
|         294|   -5.050001|   -7.484211|    0.824104|    0.012195|
|         295|   -5.046905|   -7.494124|    0.824106|    0.012195|
|         296|   -5.043861|   -7.503290|    0.824107|    0.012196|
|         297|   -5.040911|   -7.511579|    0.824109|    0.012197|
|         298|   -5.038090|   -7.518894|    0.824111|    0.012198|
|         299|   -5.035431|   -7.525182|    0.824112|    0.012199|
|         300|   -5.032963|   -7.530424|    0.824113|    0.012199|
|         301|   -5.030711|   -7.534662|    0.824115|    0.012192|
+-----------------------------------------------------------------------+
|Fixed CL Mode                           |Value                         |
+-----------------------------------------------------------------------+
|Current CL                              |0.824115                      |
|Target CL                               |0.824                         |
|Previous AOA                            |2.78454                       |
|Changed AoA by                          |-0.000566449                  |
+-----------------------------------------------------------------------+
+----------------------------------------------------------------+
|  Inner_Iter|    rms[Rho]|     rms[nu]|          CL|          CD|
+----------------------------------------------------------------+
|         302|   -3.440067|   -7.390811|    0.824116|    0.012192|
|         303|   -3.824697|   -7.456845|    0.824117|    0.012193|
|         304|   -4.070551|   -7.481090|    0.824117|    0.012193|
|         305|   -4.150962|   -7.495075|    0.824118|    0.012194|
|         306|   -4.204860|   -7.504869|    0.824119|    0.012194|
|         307|   -4.273727|   -7.512111|    0.824119|    0.012195|
|         308|   -4.357673|   -7.517462|    0.824120|    0.012195|
|         309|   -4.443113|   -7.521396|    0.824120|    0.012195|
|         310|   -4.513362|   -7.524272|    0.824120|    0.012196|
|         311|   -4.561432|   -7.526321|    0.824121|    0.012196|
|         312|   -4.590838|   -7.527768|    0.824121|    0.012196|
|         313|   -4.606719|   -7.528969|    0.824121|    0.012196|
|         314|   -4.613333|   -7.530314|    0.824121|    0.012196|
|         315|   -4.615871|   -7.532075|    0.824122|    0.012196|
|         316|   -4.619735|   -7.534340|    0.824122|    0.012196|
|         317|   -4.628393|   -7.537082|    0.824122|    0.012196|
|         318|   -4.642454|   -7.540252|    0.824123|    0.012196|
|         319|   -4.660175|   -7.543844|    0.824123|    0.012196|
|         320|   -4.678783|   -7.547871|    0.824123|    0.012195|
|         321|   -4.696053|   -7.552339|    0.824124|    0.012195|
|         322|   -4.711323|   -7.557210|    0.824124|    0.012195|
|         323|   -4.725338|   -7.562410|    0.824125|    0.012195|
|         324|   -4.739273|   -7.567849|    0.824126|    0.012194|
|         325|   -4.753854|   -7.573456|    0.824126|    0.012194|
|         326|   -4.769081|   -7.579180|    0.824127|    0.012193|
|         327|   -4.784428|   -7.584996|    0.824128|    0.012193|
|         328|   -4.799177|   -7.590897|    0.824129|    0.012193|
|         329|   -4.812671|   -7.596900|    0.824130|    0.012192|
|         330|   -4.824442|   -7.603020|    0.824131|    0.012192|
|         331|   -4.834294|   -7.609266|    0.824133|    0.012191|
|         332|   -4.842363|   -7.615630|    0.824134|    0.012191|
|         333|   -4.849127|   -7.622093|    0.824135|    0.012190|
|         334|   -4.855309|   -7.628615|    0.824137|    0.012190|
|         335|   -4.861702|   -7.635129|    0.824138|    0.012189|
|         336|   -4.868976|   -7.641554|    0.824140|    0.012189|
|         337|   -4.877558|   -7.647784|    0.824141|    0.012188|
|         338|   -4.887566|   -7.653684|    0.824142|    0.012188|
|         339|   -4.898809|   -7.659136|    0.824144|    0.012187|
|         340|   -4.910821|   -7.664003|    0.824145|    0.012187|
|         341|   -4.922939|   -7.668153|    0.824147|    0.012186|
|         342|   -4.934436|   -7.671465|    0.824148|    0.012186|
|         343|   -4.944694|   -7.673844|    0.824150|    0.012185|
|         344|   -4.953370|   -7.675228|    0.824151|    0.012185|
|         345|   -4.960491|   -7.675590|    0.824152|    0.012184|
|         346|   -4.966424|   -7.674924|    0.824153|    0.012184|
|         347|   -4.971740|   -7.673266|    0.824155|    0.012184|
|         348|   -4.977032|   -7.670674|    0.824156|    0.012183|
|         349|   -4.982766|   -7.667226|    0.824157|    0.012183|
|         350|   -4.989186|   -7.663010|    0.824157|    0.012182|
|         351|   -4.996302|   -7.658133|    0.824158|    0.012182|
|         352|   -5.003918|   -7.652708|    0.824159|    0.012182|
|         353|   -5.011707|   -7.646872|    0.824159|    0.012181|
|         354|   -5.019294|   -7.640749|    0.824159|    0.012181|
|         355|   -5.026344|   -7.634448|    0.824160|    0.012180|
|         356|   -5.032623|   -7.628099|    0.824160|    0.012180|
|         357|   -5.038033|   -7.621822|    0.824160|    0.012180|
|         358|   -5.042607|   -7.615732|    0.824159|    0.012179|
|         359|   -5.046470|   -7.609929|    0.824159|    0.012179|
|         360|   -5.049794|   -7.604506|    0.824158|    0.012179|
|         361|   -5.052751|   -7.599542|    0.824158|    0.012179|
|         362|   -5.055485|   -7.595102|    0.824157|    0.012178|
|         363|   -5.058096|   -7.591236|    0.824156|    0.012178|
|         364|   -5.060642|   -7.587983|    0.824155|    0.012178|
|         365|   -5.063149|   -7.585370|    0.824154|    0.012177|
|         366|   -5.065628|   -7.583411|    0.824153|    0.012177|
|         367|   -5.068084|   -7.582113|    0.824152|    0.012177|
|         368|   -5.070529|   -7.581467|    0.824151|    0.012177|
|         369|   -5.072980|   -7.581455|    0.824150|    0.012176|
|         370|   -5.075463|   -7.582052|    0.824149|    0.012176|
|         371|   -5.078007|   -7.583216|    0.824148|    0.012176|
|         372|   -5.080644|   -7.584896|    0.824147|    0.012176|
|         373|   -5.083403|   -7.587027|    0.824146|    0.012176|
|         374|   -5.086308|   -7.589532|    0.824145|    0.012176|
|         375|   -5.089379|   -7.592322|    0.824145|    0.012176|
|         376|   -5.092634|   -7.595299|    0.824144|    0.012176|
|         377|   -5.096084|   -7.598356|    0.824144|    0.012175|
|         378|   -5.099741|   -7.601379|    0.824144|    0.012175|
|         379|   -5.103615|   -7.604251|    0.824144|    0.012175|
|         380|   -5.107713|   -7.606856|    0.824145|    0.012175|
|         381|   -5.112044|   -7.609085|    0.824146|    0.012175|
|         382|   -5.116613|   -7.610842|    0.824146|    0.012175|
|         383|   -5.121425|   -7.612046|    0.824148|    0.012176|
|         384|   -5.126483|   -7.612640|    0.824149|    0.012176|
|         385|   -5.131788|   -7.612587|    0.824151|    0.012176|
|         386|   -5.137335|   -7.611880|    0.824152|    0.012176|
|         387|   -5.143122|   -7.610541|    0.824154|    0.012176|
|         388|   -5.149138|   -7.608615|    0.824157|    0.012176|
|         389|   -5.155373|   -7.606173|    0.824159|    0.012176|
|         390|   -5.161814|   -7.603299|    0.824162|    0.012176|
|         391|   -5.168440|   -7.600093|    0.824165|    0.012177|
|         392|   -5.175233|   -7.596660|    0.824167|    0.012177|
|         393|   -5.182166|   -7.593103|    0.824171|    0.012177|
|         394|   -5.189211|   -7.589527|    0.824174|    0.012177|
|         395|   -5.196335|   -7.586024|    0.824177|    0.012177|
|         396|   -5.203503|   -7.582679|    0.824180|    0.012178|
|         397|   -5.210672|   -7.579564|    0.824184|    0.012178|
|         398|   -5.217801|   -7.576737|    0.824187|    0.012178|
|         399|   -5.224843|   -7.574244|    0.824191|    0.012178|
|         400|   -5.231748|   -7.572116|    0.824194|    0.012178|
|         401|   -5.238468|   -7.570372|    0.824198|    0.012165|
+-----------------------------------------------------------------------+
|Fixed CL Mode                           |Value                         |
+-----------------------------------------------------------------------+
|Current CL                              |0.824198                      |
|Target CL                               |0.824                         |
|Previous AOA                            |2.78397                       |
|Changed AoA by                          |-0.000971237                  |
+-----------------------------------------------------------------------+
+----------------------------------------------------------------+
|  Inner_Iter|    rms[Rho]|     rms[nu]|          CL|          CD|
+----------------------------------------------------------------+
|         402|   -3.206012|   -7.250793|    0.824202|    0.012165|
|         403|   -3.590101|   -7.358943|    0.824205|    0.012165|
|         404|   -3.833564|   -7.403013|    0.824208|    0.012165|
|         405|   -3.912663|   -7.430472|    0.824212|    0.012166|
|         406|   -3.966871|   -7.451774|    0.824215|    0.012166|
|         407|   -4.037133|   -7.469462|    0.824219|    0.012166|
|         408|   -4.124047|   -7.484169|    0.824222|    0.012166|
|         409|   -4.215000|   -7.496231|    0.824225|    0.012167|
|         410|   -4.293448|   -7.505838|    0.824228|    0.012167|
|         411|   -4.350797|   -7.512947|    0.824231|    0.012167|
|         412|   -4.388508|   -7.517660|    0.824234|    0.012167|
|         413|   -4.410366|   -7.520601|    0.824237|    0.012168|
|         414|   -4.420224|   -7.522699|    0.824239|    0.012168|
|         415|   -4.424017|   -7.524664|    0.824242|    0.012168|
|         416|   -4.428476|   -7.526757|    0.824244|    0.012168|
|         417|   -4.438127|   -7.528955|    0.824246|    0.012168|
|         418|   -4.454045|   -7.531224|    0.824249|    0.012169|
|         419|   -4.474430|   -7.533653|    0.824251|    0.012169|
|         420|   -4.496111|   -7.536416|    0.824252|    0.012169|
|         421|   -4.516400|   -7.539654|    0.824254|    0.012169|
|         422|   -4.534412|   -7.543340|    0.824255|    0.012169|
|         423|   -4.550994|   -7.547307|    0.824257|    0.012170|
|         424|   -4.567559|   -7.551326|    0.824258|    0.012170|
|         425|   -4.584964|   -7.555187|    0.824259|    0.012170|
|         426|   -4.603138|   -7.558666|    0.824260|    0.012170|
|         427|   -4.621315|   -7.561646|    0.824260|    0.012170|
|         428|   -4.638477|   -7.564081|    0.824261|    0.012170|
|         429|   -4.653705|   -7.565946|    0.824261|    0.012170|
|         430|   -4.666374|   -7.567275|    0.824262|    0.012171|
|         431|   -4.676276|   -7.568112|    0.824262|    0.012171|
|         432|   -4.683691|   -7.568536|    0.824261|    0.012171|
|         433|   -4.689374|   -7.568613|    0.824261|    0.012171|
|         434|   -4.694378|   -7.568391|    0.824261|    0.012171|
|         435|   -4.699803|   -7.567890|    0.824260|    0.012171|
|         436|   -4.706543|   -7.567120|    0.824259|    0.012171|
|         437|   -4.715139|   -7.566103|    0.824258|    0.012171|
|         438|   -4.725724|   -7.564794|    0.824257|    0.012171|
|         439|   -4.738029|   -7.563226|    0.824256|    0.012171|
|         440|   -4.751425|   -7.561398|    0.824255|    0.012171|
|         441|   -4.765020|   -7.559284|    0.824253|    0.012171|
|         442|   -4.777827|   -7.556894|    0.824251|    0.012171|
|         443|   -4.789006|   -7.554247|    0.824249|    0.012171|
|         444|   -4.798116|   -7.551377|    0.824247|    0.012171|
|         445|   -4.805250|   -7.548335|    0.824245|    0.012171|
|         446|   -4.810996|   -7.545166|    0.824243|    0.012171|
|         447|   -4.816227|   -7.541902|    0.824240|    0.012171|
|         448|   -4.821836|   -7.538572|    0.824237|    0.012171|
|         449|   -4.828528|   -7.535191|    0.824235|    0.012171|
|         450|   -4.836711|   -7.531822|    0.824231|    0.012171|
|         451|   -4.846468|   -7.528409|    0.824228|    0.012171|
|         452|   -4.857606|   -7.524952|    0.824224|    0.012171|
|         453|   -4.869732|   -7.521511|    0.824221|    0.012171|
|         454|   -4.882362|   -7.518044|    0.824217|    0.012171|
|         455|   -4.895027|   -7.514552|    0.824212|    0.012171|
|         456|   -4.907365|   -7.511042|    0.824208|    0.012170|
|         457|   -4.919184|   -7.507517|    0.824203|    0.012170|
|         458|   -4.930473|   -7.504011|    0.824198|    0.012170|
|         459|   -4.941370|   -7.500566|    0.824193|    0.012170|
|         460|   -4.952099|   -7.497237|    0.824187|    0.012170|
|         461|   -4.962903|   -7.494062|    0.824182|    0.012170|
|         462|   -4.973990|   -7.491104|    0.824176|    0.012170|
|         463|   -4.985502|   -7.488425|    0.824170|    0.012170|
|         464|   -4.997507|   -7.486083|    0.824163|    0.012169|
|         465|   -5.010010|   -7.484134|    0.824157|    0.012169|
|         466|   -5.022975|   -7.482633|    0.824151|    0.012169|
|         467|   -5.036341|   -7.481633|    0.824144|    0.012169|
|         468|   -5.050045|   -7.481182|    0.824138|    0.012169|
|         469|   -5.064034|   -7.481318|    0.824131|    0.012169|
|         470|   -5.078261|   -7.482066|    0.824125|    0.012168|
|         471|   -5.092686|   -7.483432|    0.824119|    0.012168|
|         472|   -5.107268|   -7.485402|    0.824112|    0.012168|
|         473|   -5.121952|   -7.487934|    0.824107|    0.012168|
|         474|   -5.136665|   -7.490960|    0.824101|    0.012168|
|         475|   -5.151311|   -7.494388|    0.824096|    0.012168|
|         476|   -5.165771|   -7.498096|    0.824091|    0.012168|
|         477|   -5.179908|   -7.501913|    0.824086|    0.012168|
|         478|   -5.193572|   -7.505655|    0.824082|    0.012168|
|         479|   -5.206610|   -7.509116|    0.824078|    0.012168|
|         480|   -5.218877|   -7.512086|    0.824075|    0.012167|
|         481|   -5.230239|   -7.514359|    0.824072|    0.012167|
|         482|   -5.240590|   -7.515751|    0.824070|    0.012167|
|         483|   -5.249851|   -7.516117|    0.824068|    0.012167|
|         484|   -5.257981|   -7.515368|    0.824067|    0.012167|
|         485|   -5.264973|   -7.513476|    0.824066|    0.012167|
|         486|   -5.270859|   -7.510483|    0.824066|    0.012167|
|         487|   -5.275702|   -7.506494|    0.824066|    0.012167|
|         488|   -5.279598|   -7.501668|    0.824067|    0.012167|
|         489|   -5.282662|   -7.496204|    0.824068|    0.012167|
|         490|   -5.285025|   -7.490325|    0.824070|    0.012167|
|         491|   -5.286827|   -7.484262|    0.824073|    0.012167|
|         492|   -5.288206|   -7.478242|    0.824075|    0.012167|
|         493|   -5.289294|   -7.472479|    0.824079|    0.012167|
|         494|   -5.290217|   -7.467153|    0.824082|    0.012167|
|         495|   -5.291082|   -7.462424|    0.824086|    0.012168|
|         496|   -5.291987|   -7.458421|    0.824090|    0.012168|
|         497|   -5.293011|   -7.455241|    0.824095|    0.012168|
|         498|   -5.294219|   -7.452954|    0.824100|    0.012168|
|         499|   -5.295662|   -7.451598|    0.824105|    0.012168|
|         500|   -5.297378|   -7.451183|    0.824110|    0.012168|
|         501|   -5.299395|   -7.451690|    0.824115|    0.012160|
+-----------------------------------------------------------------------+
|Fixed CL Mode                           |Value                         |
+-----------------------------------------------------------------------+
|Current CL                              |0.824115                      |
|Target CL                               |0.824                         |
|Previous AOA                            |2.783                         |
|Changed AoA by                          |-0.00054981                   |
+-----------------------------------------------------------------------+
+----------------------------------------------------------------+
|  Inner_Iter|    rms[Rho]|     rms[nu]|          CL|          CD|
+----------------------------------------------------------------+
|         502|   -3.453042|   -7.345653|    0.824121|    0.012160|
|         503|   -3.835870|   -7.394578|    0.824127|    0.012160|
|         504|   -4.075514|   -7.412843|    0.824132|    0.012160|
|         505|   -4.152524|   -7.424954|    0.824138|    0.012160|
|         506|   -4.206028|   -7.435134|    0.824144|    0.012160|
|         507|   -4.275606|   -7.444273|    0.824149|    0.012159|
|         508|   -4.361617|   -7.452514|    0.824155|    0.012159|
|         509|   -4.451927|   -7.459846|    0.824161|    0.012159|
|         510|   -4.530946|   -7.466173|    0.824166|    0.012159|
|         511|   -4.590534|   -7.471314|    0.824172|    0.012159|
|         512|   -4.631582|   -7.475123|    0.824177|    0.012159|
|         513|   -4.656875|   -7.477608|    0.824182|    0.012159|
|         514|   -4.669427|   -7.478897|    0.824187|    0.012159|
|         515|   -4.674853|   -7.479107|    0.824191|    0.012159|
|         516|   -4.680080|   -7.478298|    0.824196|    0.012159|
|         517|   -4.690014|   -7.476515|    0.824200|    0.012159|
|         518|   -4.706048|   -7.473850|    0.824204|    0.012159|
|         519|   -4.726604|   -7.470452|    0.824207|    0.012158|
|         520|   -4.748673|   -7.466531|    0.824210|    0.012158|
|         521|   -4.769673|   -7.462288|    0.824213|    0.012158|
|         522|   -4.788755|   -7.457885|    0.824216|    0.012158|
|         523|   -4.806736|   -7.453447|    0.824218|    0.012158|
|         524|   -4.824940|   -7.449070|    0.824221|    0.012158|
|         525|   -4.844089|   -7.444836|    0.824222|    0.012157|
|         526|   -4.863929|   -7.440823|    0.824224|    0.012157|
|         527|   -4.883482|   -7.437115|    0.824225|    0.012157|
|         528|   -4.901536|   -7.433779|    0.824225|    0.012157|
|         529|   -4.917058|   -7.430876|    0.824226|    0.012157|
|         530|   -4.929433|   -7.428448|    0.824226|    0.012157|
|         531|   -4.938575|   -7.426521|    0.824226|    0.012156|
|         532|   -4.944963|   -7.425107|    0.824226|    0.012156|
|         533|   -4.949549|   -7.424196|    0.824225|    0.012156|
|         534|   -4.953532|   -7.423764|    0.824224|    0.012156|
|         535|   -4.958072|   -7.423769|    0.824223|    0.012155|
|         536|   -4.964043|   -7.424154|    0.824221|    0.012155|
|         537|   -4.971910|   -7.424859|    0.824220|    0.012155|
|         538|   -4.981696|   -7.425810|    0.824218|    0.012155|
|         539|   -4.993004|   -7.426939|    0.824216|    0.012155|
|         540|   -5.005084|   -7.428178|    0.824214|    0.012155|
|         541|   -5.016951|   -7.429467|    0.824211|    0.012154|
|         542|   -5.027583|   -7.430751|    0.824209|    0.012154|
|         543|   -5.036181|   -7.431988|    0.824206|    0.012154|
|         544|   -5.042415|   -7.433147|    0.824203|    0.012154|
|         545|   -5.046522|   -7.434208|    0.824200|    0.012154|
|         546|   -5.049210|   -7.435163|    0.824198|    0.012154|
|         547|   -5.051412|   -7.436011|    0.824195|    0.012154|
|         548|   -5.054020|   -7.436757|    0.824191|    0.012154|
|         549|   -5.057696|   -7.437411|    0.824188|    0.012154|
|         550|   -5.062785|   -7.437984|    0.824185|    0.012154|
|         551|   -5.069317|   -7.438491|    0.824182|    0.012154|
|         552|   -5.077075|   -7.438943|    0.824178|    0.012154|
|         553|   -5.085679|   -7.439359|    0.824175|    0.012154|
|         554|   -5.094697|   -7.439747|    0.824171|    0.012154|
|         555|   -5.103738|   -7.440100|    0.824168|    0.012154|
|         556|   -5.112530|   -7.440410|    0.824164|    0.012154|
|         557|   -5.120959|   -7.440665|    0.824160|    0.012154|
|         558|   -5.129066|   -7.440851|    0.824156|    0.012155|
|         559|   -5.137004|   -7.440954|    0.824152|    0.012155|
|         560|   -5.144984|   -7.440959|    0.824148|    0.012155|
|         561|   -5.153218|   -7.440850|    0.824144|    0.012155|
|         562|   -5.161879|   -7.440618|    0.824140|    0.012155|
|         563|   -5.171085|   -7.440260|    0.824136|    0.012156|
|         564|   -5.180890|   -7.439778|    0.824131|    0.012156|
|         565|   -5.191303|   -7.439186|    0.824127|    0.012156|
|         566|   -5.202302|   -7.438503|    0.824123|    0.012157|
|         567|   -5.213852|   -7.437759|    0.824118|    0.012157|
|         568|   -5.225918|   -7.436993|    0.824114|    0.012157|
|         569|   -5.238473|   -7.436251|    0.824109|    0.012158|
|         570|   -5.251500|   -7.435582|    0.824105|    0.012158|
|         571|   -5.264985|   -7.435037|    0.824101|    0.012158|
|         572|   -5.278910|   -7.434666|    0.824096|    0.012159|
|         573|   -5.293250|   -7.434512|    0.824092|    0.012159|
|         574|   -5.307960|   -7.434613|    0.824088|    0.012160|
|         575|   -5.322973|   -7.434993|    0.824084|    0.012160|
|         576|   -5.338200|   -7.435669|    0.824080|    0.012160|
|         577|   -5.353526|   -7.436640|    0.824076|    0.012161|
|         578|   -5.368815|   -7.437894|    0.824073|    0.012161|
|         579|   -5.383910|   -7.439402|    0.824070|    0.012162|
|         580|   -5.398640|   -7.441121|    0.824067|    0.012162|
|         581|   -5.412825|   -7.442996|    0.824064|    0.012162|
|         582|   -5.426284|   -7.444959|    0.824061|    0.012163|
|         583|   -5.438841|   -7.446935|    0.824059|    0.012163|
|         584|   -5.450333|   -7.448844|    0.824057|    0.012163|
|         585|   -5.460625|   -7.450602|    0.824055|    0.012164|
|         586|   -5.469612|   -7.452132|    0.824054|    0.012164|
|         587|   -5.477233|   -7.453366|    0.824053|    0.012165|
|         588|   -5.483470|   -7.454249|    0.824052|    0.012165|
|         589|   -5.488352|   -7.454742|    0.824051|    0.012165|
|         590|   -5.491952|   -7.454830|    0.824051|    0.012165|
|         591|   -5.494376|   -7.454518|    0.824051|    0.012166|
|         592|   -5.495760|   -7.453832|    0.824051|    0.012166|
|         593|   -5.496256|   -7.452820|    0.824051|    0.012166|
|         594|   -5.496025|   -7.451545|    0.824052|    0.012167|
|         595|   -5.495226|   -7.450084|    0.824053|    0.012167|
|         596|   -5.494011|   -7.448518|    0.824054|    0.012167|
|         597|   -5.492522|   -7.446933|    0.824056|    0.012167|
|         598|   -5.490886|   -7.445411|    0.824057|    0.012167|
|         599|   -5.489214|   -7.444027|    0.824059|    0.012168|
|         600|   -5.487605|   -7.442845|    0.824061|    0.012168|
|         601|   -5.486138|   -7.441917|    0.824063|    0.012164|
+-----------------------------------------------------------------------+
|Fixed CL Mode                           |Value                         |
+-----------------------------------------------------------------------+
|Current CL                              |0.824063                      |
|Target CL                               |0.824                         |
|Previous AOA                            |2.78245                       |
|Changed AoA by                          |-0.000305774                  |
+-----------------------------------------------------------------------+
+----------------------------------------------------------------+
|  Inner_Iter|    rms[Rho]|     rms[nu]|          CL|          CD|
+----------------------------------------------------------------+
|         602|   -3.707867|   -7.403418|    0.824066|    0.012164|
|         603|   -4.090314|   -7.421023|    0.824068|    0.012164|
|         604|   -4.328068|   -7.426495|    0.824070|    0.012164|
|         605|   -4.403416|   -7.429814|    0.824073|    0.012164|
|         606|   -4.455971|   -7.432537|    0.824075|    0.012164|
|         607|   -4.524731|   -7.434994|    0.824078|    0.012164|
|         608|   -4.609886|   -7.437257|    0.824081|    0.012164|
|         609|   -4.699567|   -7.439337|    0.824083|    0.012164|
|         610|   -4.778735|   -7.441208|    0.824086|    0.012164|
|         611|   -4.839501|   -7.442806|    0.824089|    0.012164|
|         612|   -4.882391|   -7.444073|    0.824091|    0.012164|
|         613|   -4.909602|   -7.444980|    0.824094|    0.012164|
|         614|   -4.923649|   -7.445525|    0.824096|    0.012164|
|         615|   -4.929922|   -7.445704|    0.824099|    0.012164|
|         616|   -4.935425|   -7.445500|    0.824101|    0.012164|
|         617|   -4.945256|   -7.444897|    0.824103|    0.012164|
|         618|   -4.960979|   -7.443904|    0.824105|    0.012164|
|         619|   -4.981150|   -7.442557|    0.824107|    0.012164|
|         620|   -5.002879|   -7.440915|    0.824109|    0.012164|
|         621|   -5.023687|   -7.439048|    0.824110|    0.012164|
|         622|   -5.042780|   -7.437021|    0.824111|    0.012164|
|         623|   -5.060958|   -7.434897|    0.824113|    0.012164|
|         624|   -5.079478|   -7.432738|    0.824114|    0.012164|
|         625|   -5.098973|   -7.430601|    0.824115|    0.012163|
|         626|   -5.119096|   -7.428549|    0.824115|    0.012163|
|         627|   -5.138792|   -7.426641|    0.824116|    0.012163|
|         628|   -5.156807|   -7.424932|    0.824116|    0.012163|
|         629|   -5.172118|   -7.423470|    0.824117|    0.012163|
|         630|   -5.184180|   -7.422295|    0.824117|    0.012162|
|         631|   -5.193014|   -7.421436|    0.824117|    0.012162|
|         632|   -5.199204|   -7.420912|    0.824116|    0.012162|
|         633|   -5.203772|   -7.420731|    0.824116|    0.012162|
|         634|   -5.207945|   -7.420888|    0.824116|    0.012161|
|         635|   -5.212869|   -7.421369|    0.824115|    0.012161|
|         636|   -5.219386|   -7.422148|    0.824114|    0.012161|
|         637|   -5.227920|   -7.423195|    0.824114|    0.012160|
|         638|   -5.238448|   -7.424472|    0.824113|    0.012160|
|         639|   -5.250528|   -7.425940|    0.824112|    0.012160|
|         640|   -5.263357|   -7.427555|    0.824111|    0.012160|
|         641|   -5.275895|   -7.429278|    0.824110|    0.012159|
|         642|   -5.287061|   -7.431067|    0.824108|    0.012159|
|         643|   -5.296015|   -7.432888|    0.824107|    0.012159|
|         644|   -5.302404|   -7.434709|    0.824106|    0.012158|
|         645|   -5.306476|   -7.436505|    0.824105|    0.012158|
|         646|   -5.308972|   -7.438256|    0.824103|    0.012158|
|         647|   -5.310867|   -7.439946|    0.824102|    0.012158|
|         648|   -5.313090|   -7.441567|    0.824101|    0.012157|
|         649|   -5.316323|   -7.443112|    0.824099|    0.012157|
|         650|   -5.320915|   -7.444580|    0.824098|    0.012157|
|         651|   -5.326893|   -7.445973|    0.824096|    0.012157|
|         652|   -5.334026|   -7.447294|    0.824095|    0.012156|
|         653|   -5.341924|   -7.448551|    0.824094|    0.012156|
|         654|   -5.350142|   -7.449750|    0.824092|    0.012156|
|         655|   -5.358286|   -7.450895|    0.824090|    0.012156|
|         656|   -5.366088|   -7.451994|    0.824089|    0.012156|
|         657|   -5.373440|   -7.453049|    0.824087|    0.012156|
|         658|   -5.380392|   -7.454065|    0.824086|    0.012156|
|         659|   -5.387105|   -7.455046|    0.824084|    0.012155|
|         660|   -5.393792|   -7.455997|    0.824082|    0.012155|
|         661|   -5.400665|   -7.456924|    0.824080|    0.012155|
|         662|   -5.407897|   -7.457835|    0.824078|    0.012155|
|         663|   -5.415598|   -7.458739|    0.824076|    0.012155|
|         664|   -5.423824|   -7.459647|    0.824075|    0.012155|
|         665|   -5.432582|   -7.460573|    0.824073|    0.012155|
|         666|   -5.441856|   -7.461535|    0.824071|    0.012155|
|         667|   -5.451617|   -7.462552|    0.824068|    0.012155|
|         668|   -5.461846|   -7.463645|    0.824066|    0.012155|
|         669|   -5.472529|   -7.464838|    0.824064|    0.012156|
|         670|   -5.483669|   -7.466155|    0.824062|    0.012156|
|         671|   -5.495274|   -7.467618|    0.824060|    0.012156|
|         672|   -5.507355|   -7.469247|    0.824058|    0.012156|
|         673|   -5.519917|   -7.471057|    0.824056|    0.012156|
|         674|   -5.532957|   -7.473061|    0.824054|    0.012156|
|         675|   -5.546454|   -7.475264|    0.824052|    0.012156|
|         676|   -5.560375|   -7.477666|    0.824050|    0.012157|
|         677|   -5.574669|   -7.480259|    0.824049|    0.012157|
|         678|   -5.589271|   -7.483025|    0.824047|    0.012157|
|         679|   -5.604102|   -7.485943|    0.824046|    0.012157|
|         680|   -5.619072|   -7.488982|    0.824044|    0.012158|
|         681|   -5.634078|   -7.492104|    0.824043|    0.012158|
|         682|   -5.649010|   -7.495268|    0.824042|    0.012158|
|         683|   -5.663747|   -7.498427|    0.824041|    0.012158|
|         684|   -5.678163|   -7.501533|    0.824040|    0.012159|
|         685|   -5.692128|   -7.504539|    0.824039|    0.012159|
|         686|   -5.705513|   -7.507401|    0.824038|    0.012159|
|         687|   -5.718192|   -7.510080|    0.824038|    0.012159|
|         688|   -5.730053|   -7.512544|    0.824037|    0.012160|
|         689|   -5.740996|   -7.514772|    0.824037|    0.012160|
|         690|   -5.750944|   -7.516751|    0.824037|    0.012160|
|         691|   -5.759843|   -7.518484|    0.824037|    0.012161|
|         692|   -5.767668|   -7.519981|    0.824038|    0.012161|
|         693|   -5.774421|   -7.521267|    0.824038|    0.012161|
|         694|   -5.780128|   -7.522375|    0.824039|    0.012162|
|         695|   -5.784843|   -7.523345|    0.824039|    0.012162|
|         696|   -5.788637|   -7.524223|    0.824040|    0.012162|
|         697|   -5.791599|   -7.525059|    0.824041|    0.012162|
|         698|   -5.793828|   -7.525902|    0.824042|    0.012163|
|         699|   -5.795431|   -7.526799|    0.824043|    0.012163|
|         700|   -5.796517|   -7.527791|    0.824044|    0.012163|
|         701|   -5.797196|   -7.528915|    0.824046|    0.012160|
+-----------------------------------------------------------------------+
|Fixed CL Mode                           |Value                         |
+-----------------------------------------------------------------------+
|Current CL                              |0.824046                      |
|Target CL                               |0.824                         |
|Previous AOA                            |2.78214                       |
|Changed AoA by                          |-0.000221189                  |
+-----------------------------------------------------------------------+
+----------------------------------------------------------------+
|  Inner_Iter|    rms[Rho]|     rms[nu]|          CL|          CD|
+----------------------------------------------------------------+
|         702|   -3.848623|   -7.500133|    0.824047|    0.012161|
|         703|   -4.232236|   -7.515987|    0.824048|    0.012161|
|         704|   -4.472850|   -7.521959|    0.824050|    0.012161|
|         705|   -4.549218|   -7.526163|    0.824051|    0.012162|
|         706|   -4.601835|   -7.529867|    0.824052|    0.012162|
|         707|   -4.670786|   -7.533347|    0.824054|    0.012162|
|         708|   -4.756455|   -7.536677|    0.824055|    0.012162|
|         709|   -4.846780|   -7.539882|    0.824057|    0.012163|
|         710|   -4.926263|   -7.542965|    0.824058|    0.012163|
|         711|   -4.986689|   -7.545897|    0.824059|    0.012163|
|         712|   -5.028700|   -7.548652|    0.824061|    0.012163|
|         713|   -5.054829|   -7.551230|    0.824062|    0.012163|
|         714|   -5.067927|   -7.553646|    0.824063|    0.012164|
|         715|   -5.073608|   -7.555909|    0.824064|    0.012164|
|         716|   -5.078922|   -7.558009|    0.824066|    0.012164|
|         717|   -5.088904|   -7.559927|    0.824067|    0.012164|
|         718|   -5.105021|   -7.561656|    0.824068|    0.012164|
|         719|   -5.125721|   -7.563206|    0.824068|    0.012164|
|         720|   -5.147985|   -7.564600|    0.824069|    0.012164|
|         721|   -5.169219|   -7.565869|    0.824070|    0.012164|
|         722|   -5.188573|   -7.567039|    0.824070|    0.012165|
|         723|   -5.206878|   -7.568133|    0.824071|    0.012165|
|         724|   -5.225478|   -7.569173|    0.824071|    0.012165|
|         725|   -5.245099|   -7.570185|    0.824071|    0.012165|
|         726|   -5.265462|   -7.571199|    0.824072|    0.012165|
|         727|   -5.285543|   -7.572250|    0.824072|    0.012165|
|         728|   -5.304076|   -7.573375|    0.824072|    0.012165|
|         729|   -5.319985|   -7.574609|    0.824071|    0.012165|
|         730|   -5.332642|   -7.575983|    0.824071|    0.012165|
|         731|   -5.341992|   -7.577523|    0.824071|    0.012164|
|         732|   -5.348576|   -7.579250|    0.824070|    0.012164|
|         733|   -5.353429|   -7.581176|    0.824070|    0.012164|
|         734|   -5.357835|   -7.583304|    0.824069|    0.012164|
|         735|   -5.363025|   -7.585630|    0.824069|    0.012164|
|         736|   -5.369931|   -7.588139|    0.824068|    0.012164|
|         737|   -5.379059|   -7.590813|    0.824067|    0.012164|
|         738|   -5.390449|   -7.593629|    0.824066|    0.012164|
|         739|   -5.403701|   -7.596559|    0.824066|    0.012164|
|         740|   -5.418019|   -7.599575|    0.824065|    0.012163|
|         741|   -5.432317|   -7.602645|    0.824064|    0.012163|
|         742|   -5.445423|   -7.605744|    0.824063|    0.012163|
|         743|   -5.456364|   -7.608843|    0.824062|    0.012163|
|         744|   -5.464662|   -7.611921|    0.824061|    0.012163|
|         745|   -5.470490|   -7.614959|    0.824059|    0.012162|
|         746|   -5.474590|   -7.617939|    0.824058|    0.012162|
|         747|   -5.478005|   -7.620849|    0.824057|    0.012162|
|         748|   -5.481761|   -7.623679|    0.824056|    0.012162|
|         749|   -5.486638|   -7.626418|    0.824055|    0.012162|
|         750|   -5.493061|   -7.629063|    0.824054|    0.012161|
|         751|   -5.501092|   -7.631607|    0.824052|    0.012161|
|         752|   -5.510495|   -7.634047|    0.824051|    0.012161|
|         753|   -5.520834|   -7.636382|    0.824050|    0.012161|
|         754|   -5.531590|   -7.638609|    0.824049|    0.012161|
|         755|   -5.542277|   -7.640725|    0.824047|    0.012161|
|         756|   -5.552540|   -7.642726|    0.824046|    0.012160|
|         757|   -5.562209|   -7.644611|    0.824045|    0.012160|
|         758|   -5.571304|   -7.646378|    0.824043|    0.012160|
|         759|   -5.579992|   -7.648027|    0.824042|    0.012160|
|         760|   -5.588516|   -7.649561|    0.824040|    0.012160|
|         761|   -5.597129|   -7.650983|    0.824039|    0.012160|
|         762|   -5.606036|   -7.652302|    0.824037|    0.012159|
|         763|   -5.615374|   -7.653530|    0.824036|    0.012159|
|         764|   -5.625205|   -7.654683|    0.824034|    0.012159|
|         765|   -5.635530|   -7.655782|    0.824033|    0.012159|
|         766|   -5.646314|   -7.656849|    0.824031|    0.012159|
|         767|   -5.657506|   -7.657912|    0.824030|    0.012159|
|         768|   -5.669056|   -7.659002|    0.824028|    0.012159|
|         769|   -5.680926|   -7.660147|    0.824026|    0.012159|
|         770|   -5.693094|   -7.661380|    0.824025|    0.012159|
|         771|   -5.705544|   -7.662731|    0.824023|    0.012159|
|         772|   -5.718261|   -7.664227|    0.824022|    0.012159|
|         773|   -5.731224|   -7.665889|    0.824020|    0.012159|
|         774|   -5.744393|   -7.667734|    0.824019|    0.012159|
|         775|   -5.757710|   -7.669772|    0.824018|    0.012159|
|         776|   -5.771094|   -7.672004|    0.824016|    0.012159|
|         777|   -5.784444|   -7.674424|    0.824015|    0.012159|
|         778|   -5.797643|   -7.677020|    0.824014|    0.012159|
|         779|   -5.810559|   -7.679770|    0.824013|    0.012159|
|         780|   -5.823055|   -7.682645|    0.824012|    0.012159|
|         781|   -5.834988|   -7.685611|    0.824011|    0.012159|
|         782|   -5.846225|   -7.688629|    0.824011|    0.012159|
|         783|   -5.856637|   -7.691657|    0.824010|    0.012159|
|         784|   -5.866115|   -7.694650|    0.824010|    0.012159|
|         785|   -5.874570|   -7.697568|    0.824009|    0.012159|
|         786|   -5.881941|   -7.700370|    0.824009|    0.012159|
|         787|   -5.888197|   -7.703024|    0.824009|    0.012159|
|         788|   -5.893340|   -7.705502|    0.824009|    0.012160|
|         789|   -5.897404|   -7.707788|    0.824009|    0.012160|
|         790|   -5.900451|   -7.709875|    0.824009|    0.012160|
|         791|   -5.902568|   -7.711767|    0.824010|    0.012160|
|         792|   -5.903860|   -7.713478|    0.824010|    0.012160|
|         793|   -5.904440|   -7.715032|    0.824011|    0.012160|
|         794|   -5.904430|   -7.716461|    0.824011|    0.012161|
|         795|   -5.903947|   -7.717803|    0.824012|    0.012161|
|         796|   -5.903106|   -7.719099|    0.824013|    0.012161|
|         797|   -5.902012|   -7.720394|    0.824013|    0.012161|
|         798|   -5.900760|   -7.721729|    0.824014|    0.012161|
|         799|   -5.899435|   -7.723144|    0.824015|    0.012162|
|         800|   -5.898110|   -7.724674|    0.824016|    0.012162|
|         801|   -5.896848|   -7.726345|    0.824017|    0.012161|
+-----------------------------------------------------------------------+
|Fixed CL Mode                           |Value                         |
+-----------------------------------------------------------------------+
|Current CL                              |0.824017                      |
|Target CL                               |0.824                         |
|Previous AOA                            |2.78192                       |
|Changed AoA by                          |-8.1271e-05                   |
+-----------------------------------------------------------------------+
+----------------------------------------------------------------+
|  Inner_Iter|    rms[Rho]|     rms[nu]|          CL|          CD|
+----------------------------------------------------------------+
|         802|   -4.283363|   -7.717537|    0.824018|    0.012161|
|         803|   -4.665850|   -7.724697|    0.824020|    0.012161|
|         804|   -4.902881|   -7.728382|    0.824021|    0.012161|
|         805|   -4.976863|   -7.731554|    0.824022|    0.012162|
|         806|   -5.028064|   -7.734645|    0.824023|    0.012162|
|         807|   -5.095252|   -7.737729|    0.824024|    0.012162|
|         808|   -5.178321|   -7.740803|    0.824025|    0.012162|
|         809|   -5.265366|   -7.743844|    0.824026|    0.012163|
|         810|   -5.341832|   -7.746822|    0.824028|    0.012163|
|         811|   -5.400486|   -7.749694|    0.824029|    0.012163|
|         812|   -5.442133|   -7.752422|    0.824030|    0.012163|
|         813|   -5.468941|   -7.754975|    0.824031|    0.012163|
|         814|   -5.483207|   -7.757337|    0.824032|    0.012164|
|         815|   -5.489867|   -7.759490|    0.824033|    0.012164|
|         816|   -5.495446|   -7.761419|    0.824034|    0.012164|
|         817|   -5.504763|   -7.763111|    0.824034|    0.012164|
|         818|   -5.519332|   -7.764567|    0.824035|    0.012164|
|         819|   -5.537826|   -7.765798|    0.824036|    0.012165|
|         820|   -5.557592|   -7.766829|    0.824036|    0.012165|
|         821|   -5.576399|   -7.767693|    0.824037|    0.012165|
|         822|   -5.593565|   -7.768425|    0.824037|    0.012165|
|         823|   -5.609803|   -7.769064|    0.824038|    0.012165|
|         824|   -5.626159|   -7.769651|    0.824038|    0.012165|
|         825|   -5.643069|   -7.770229|    0.824038|    0.012165|
|         826|   -5.660087|   -7.770841|    0.824039|    0.012165|
|         827|   -5.676181|   -7.771532|    0.824039|    0.012166|
|         828|   -5.690242|   -7.772344|    0.824039|    0.012166|
|         829|   -5.701474|   -7.773315|    0.824039|    0.012166|
|         830|   -5.709580|   -7.774481|    0.824039|    0.012166|
|         831|   -5.714783|   -7.775868|    0.824038|    0.012166|
|         832|   -5.717747|   -7.777498|    0.824038|    0.012166|
|         833|   -5.719430|   -7.779380|    0.824038|    0.012166|
|         834|   -5.720867|   -7.781519|    0.824037|    0.012166|
|         835|   -5.722957|   -7.783912|    0.824037|    0.012166|
|         836|   -5.726306|   -7.786546|    0.824037|    0.012166|
|         837|   -5.731159|   -7.789404|    0.824036|    0.012166|
|         838|   -5.737407|   -7.792463|    0.824036|    0.012166|
|         839|   -5.744640|   -7.795697|    0.824035|    0.012166|
|         840|   -5.752227|   -7.799077|    0.824035|    0.012166|
|         841|   -5.759439|   -7.802571|    0.824034|    0.012166|
|         842|   -5.765600|   -7.806149|    0.824033|    0.012166|
|         843|   -5.770255|   -7.809782|    0.824033|    0.012166|
|         844|   -5.773291|   -7.813441|    0.824032|    0.012166|
|         845|   -5.774958|   -7.817102|    0.824032|    0.012166|
|         846|   -5.775773|   -7.820745|    0.824031|    0.012166|
|         847|   -5.776364|   -7.824350|    0.824030|    0.012165|
|         848|   -5.777306|   -7.827904|    0.824030|    0.012165|
|         849|   -5.779006|   -7.831398|    0.824029|    0.012165|
|         850|   -5.781662|   -7.834823|    0.824029|    0.012165|
|         851|   -5.785271|   -7.838176|    0.824028|    0.012165|
|         852|   -5.789674|   -7.841455|    0.824027|    0.012165|
|         853|   -5.794625|   -7.844659|    0.824027|    0.012165|
|         854|   -5.799858|   -7.847786|    0.824026|    0.012165|
|         855|   -5.805149|   -7.850836|    0.824026|    0.012165|
|         856|   -5.810353|   -7.853805|    0.824025|    0.012165|
|         857|   -5.815417|   -7.856693|    0.824025|    0.012165|
|         858|   -5.820373|   -7.859494|    0.824024|    0.012165|
|         859|   -5.825306|   -7.862204|    0.824024|    0.012164|
|         860|   -5.830326|   -7.864818|    0.824023|    0.012164|
|         861|   -5.835535|   -7.867329|    0.824023|    0.012164|
|         862|   -5.841008|   -7.869731|    0.824022|    0.012164|
|         863|   -5.846788|   -7.872021|    0.824022|    0.012164|
|         864|   -5.852882|   -7.874194|    0.824021|    0.012164|
|         865|   -5.859272|   -7.876251|    0.824021|    0.012164|
|         866|   -5.865923|   -7.878195|    0.824020|    0.012164|
|         867|   -5.872798|   -7.880033|    0.824020|    0.012164|
|         868|   -5.879855|   -7.881775|    0.824020|    0.012164|
|         869|   -5.887060|   -7.883436|    0.824019|    0.012164|
|         870|   -5.894380|   -7.885032|    0.824019|    0.012164|
|         871|   -5.901783|   -7.886584|    0.824018|    0.012164|
|         872|   -5.909235|   -7.888113|    0.824018|    0.012164|
|         873|   -5.916695|   -7.889642|    0.824018|    0.012164|
|         874|   -5.924115|   -7.891191|    0.824017|    0.012163|
|         875|   -5.931438|   -7.892782|    0.824017|    0.012163|
|         876|   -5.938600|   -7.894431|    0.824017|    0.012163|
|         877|   -5.945531|   -7.896153|    0.824017|    0.012163|
|         878|   -5.952155|   -7.897956|    0.824016|    0.012163|
|         879|   -5.958400|   -7.899844|    0.824016|    0.012163|
|         880|   -5.964191|   -7.901817|    0.824016|    0.012163|
|         881|   -5.969463|   -7.903867|    0.824016|    0.012163|
|         882|   -5.974156|   -7.905983|    0.824016|    0.012163|
|         883|   -5.978221|   -7.908147|    0.824016|    0.012163|
|         884|   -5.981621|   -7.910341|    0.824016|    0.012163|
|         885|   -5.984331|   -7.912540|    0.824016|    0.012163|
|         886|   -5.986344|   -7.914720|    0.824016|    0.012163|
|         887|   -5.987663|   -7.916855|    0.824016|    0.012163|
|         888|   -5.988310|   -7.918923|    0.824016|    0.012163|
|         889|   -5.988317|   -7.920902|    0.824017|    0.012163|
|         890|   -5.987729|   -7.922775|    0.824017|    0.012163|
|         891|   -5.986602|   -7.924530|    0.824017|    0.012163|
|         892|   -5.984998|   -7.926159|    0.824018|    0.012164|
|         893|   -5.982985|   -7.927664|    0.824018|    0.012164|
|         894|   -5.980634|   -7.929048|    0.824018|    0.012164|
|         895|   -5.978017|   -7.930323|    0.824019|    0.012164|
|         896|   -5.975207|   -7.931506|    0.824019|    0.012164|
|         897|   -5.972274|   -7.932617|    0.824020|    0.012164|
|         898|   -5.969284|   -7.933679|    0.824020|    0.012164|
|         899|   -5.966301|   -7.934716|    0.824021|    0.012164|
|         900|   -5.963384|   -7.935754|    0.824022|    0.012164|
|         901|   -5.960588|   -7.936814|    0.824022|    0.012162|
+-----------------------------------------------------------------------+
|Fixed CL Mode                           |Value                         |
+-----------------------------------------------------------------------+
|Current CL                              |0.824022                      |
|Target CL                               |0.824                         |
|Previous AOA                            |2.78184                       |
[...]
|        5298|   -6.048286|   -7.944411|    0.824236|    0.012168|
|        5299|   -6.054970|   -7.949126|    0.824236|    0.012168|
|        5300|   -6.061307|   -7.953868|    0.824237|    0.012167|
|        5301|   -6.067260|   -7.958652|    0.824237|    0.012167|
|        5302|   -6.072800|   -7.963490|    0.824237|    0.012167|
|        5303|   -6.077906|   -7.968393|    0.824237|    0.012167|
|        5304|   -6.082572|   -7.973366|    0.824237|    0.012167|
|        5305|   -6.086800|   -7.978413|    0.824237|    0.012167|
|        5306|   -6.090601|   -7.983538|    0.824237|    0.012167|
|        5307|   -6.093999|   -7.988740|    0.824237|    0.012167|
|        5308|   -6.097023|   -7.994022|    0.824237|    0.012167|
|        5309|   -6.099713|   -7.999383|    0.824237|    0.012167|
|        5310|   -6.102112|   -8.004824|    0.824237|    0.012167|
|        5311|   -6.104268|   -8.010346|    0.824237|    0.012167|
|        5312|   -6.106233|   -8.015952|    0.824238|    0.012167|
|        5313|   -6.108059|   -8.021644|    0.824238|    0.012167|
|        5314|   -6.109796|   -8.027426|    0.824238|    0.012167|
|        5315|   -6.111494|   -8.033303|    0.824238|    0.012167|
|        5316|   -6.113200|   -8.039281|    0.824238|    0.012167|
|        5317|   -6.114956|   -8.045365|    0.824238|    0.012167|
|        5318|   -6.116800|   -8.051563|    0.824238|    0.012167|
|        5319|   -6.118765|   -8.057882|    0.824238|    0.012167|
|        5320|   -6.120878|   -8.064329|    0.824238|    0.012167|
|        5321|   -6.123159|   -8.070911|    0.824239|    0.012167|
|        5322|   -6.125623|   -8.077634|    0.824239|    0.012168|
|        5323|   -6.128279|   -8.084504|    0.824239|    0.012168|
|        5324|   -6.131128|   -8.091524|    0.824239|    0.012168|
|        5325|   -6.134166|   -8.098696|    0.824239|    0.012168|
|        5326|   -6.137381|   -8.106022|    0.824239|    0.012168|
|        5327|   -6.140758|   -8.113499|    0.824239|    0.012168|
|        5328|   -6.144274|   -8.121124|    0.824239|    0.012168|
|        5329|   -6.147900|   -8.128890|    0.824240|    0.012168|
|        5330|   -6.151603|   -8.136792|    0.824240|    0.012168|
|        5331|   -6.155349|   -8.144817|    0.824240|    0.012168|
|        5332|   -6.159098|   -8.152956|    0.824240|    0.012168|
|        5333|   -6.162809|   -8.161194|    0.824240|    0.012168|
|        5334|   -6.166443|   -8.169518|    0.824240|    0.012169|
|        5335|   -6.169959|   -8.177912|    0.824240|    0.012169|
|        5336|   -6.173320|   -8.186362|    0.824240|    0.012169|
|        5337|   -6.176493|   -8.194852|    0.824241|    0.012169|
|        5338|   -6.179449|   -8.203367|    0.824241|    0.012169|
|        5339|   -6.182166|   -8.211893|    0.824241|    0.012169|
|        5340|   -6.184629|   -8.220416|    0.824241|    0.012169|
|        5341|   -6.186831|   -8.228924|    0.824241|    0.012169|
|        5342|   -6.188773|   -8.237406|    0.824241|    0.012169|
|        5343|   -6.190465|   -8.245851|    0.824241|    0.012169|
|        5344|   -6.191925|   -8.254252|    0.824241|    0.012169|
|        5345|   -6.193176|   -8.262603|    0.824241|    0.012169|
|        5346|   -6.194251|   -8.270898|    0.824241|    0.012169|
|        5347|   -6.195185|   -8.279134|    0.824241|    0.012170|
|        5348|   -6.196019|   -8.287309|    0.824241|    0.012170|
|        5349|   -6.196795|   -8.295420|    0.824241|    0.012170|
|        5350|   -6.197559|   -8.303469|    0.824241|    0.012170|
|        5351|   -6.198355|   -8.311453|    0.824241|    0.012170|
|        5352|   -6.199227|   -8.319373|    0.824241|    0.012170|
|        5353|   -6.200217|   -8.327230|    0.824242|    0.012170|
|        5354|   -6.201365|   -8.335025|    0.824242|    0.012170|
|        5355|   -6.202706|   -8.342758|    0.824242|    0.012170|
|        5356|   -6.204274|   -8.350428|    0.824242|    0.012170|
|        5357|   -6.206097|   -8.358035|    0.824242|    0.012170|
|        5358|   -6.208198|   -8.365575|    0.824241|    0.012170|
|        5359|   -6.210597|   -8.373047|    0.824241|    0.012170|
|        5360|   -6.213308|   -8.380443|    0.824241|    0.012170|
|        5361|   -6.216341|   -8.387760|    0.824241|    0.012170|
|        5362|   -6.219701|   -8.394989|    0.824241|    0.012170|
|        5363|   -6.223387|   -8.402121|    0.824241|    0.012170|
|        5364|   -6.227394|   -8.409146|    0.824241|    0.012170|
|        5365|   -6.231711|   -8.416057|    0.824241|    0.012170|
|        5366|   -6.236323|   -8.422844|    0.824241|    0.012170|
|        5367|   -6.241210|   -8.429499|    0.824241|    0.012170|
|        5368|   -6.246347|   -8.436013|    0.824241|    0.012170|
|        5369|   -6.251704|   -8.442375|    0.824241|    0.012170|
|        5370|   -6.257248|   -8.448579|    0.824241|    0.012170|
|        5371|   -6.262940|   -8.454618|    0.824241|    0.012170|
|        5372|   -6.268738|   -8.460486|    0.824241|    0.012170|
|        5373|   -6.274599|   -8.466180|    0.824241|    0.012170|
|        5374|   -6.280474|   -8.471700|    0.824240|    0.012169|
|        5375|   -6.286315|   -8.477046|    0.824240|    0.012169|
|        5376|   -6.292072|   -8.482223|    0.824240|    0.012169|
|        5377|   -6.297697|   -8.487236|    0.824240|    0.012169|
|        5378|   -6.303143|   -8.492095|    0.824240|    0.012169|
|        5379|   -6.308363|   -8.496812|    0.824240|    0.012169|
|        5380|   -6.313318|   -8.501399|    0.824240|    0.012169|
|        5381|   -6.317972|   -8.505872|    0.824240|    0.012169|
|        5382|   -6.322293|   -8.510247|    0.824240|    0.012169|
|        5383|   -6.326260|   -8.514541|    0.824240|    0.012169|
|        5384|   -6.329854|   -8.518771|    0.824240|    0.012169|
|        5385|   -6.333068|   -8.522954|    0.824240|    0.012169|
|        5386|   -6.335901|   -8.527109|    0.824240|    0.012169|
|        5387|   -6.338356|   -8.531252|    0.824240|    0.012168|
|        5388|   -6.340444|   -8.535395|    0.824240|    0.012168|
|        5389|   -6.342181|   -8.539541|    0.824240|    0.012168|
|        5390|   -6.343588|   -8.543693|    0.824240|    0.012168|
|        5391|   -6.344688|   -8.547851|    0.824240|    0.012168|
|        5392|   -6.345506|   -8.552012|    0.824240|    0.012168|
|        5393|   -6.346071|   -8.556171|    0.824240|    0.012168|
|        5394|   -6.346408|   -8.560319|    0.824240|    0.012168|
|        5395|   -6.346544|   -8.564443|    0.824240|    0.012168|
|        5396|   -6.346504|   -8.568528|    0.824240|    0.012168|
|        5397|   -6.346312|   -8.572556|    0.824240|    0.012167|
|        5398|   -6.345988|   -8.576503|    0.824240|    0.012167|
|        5399|   -6.345551|   -8.580346|    0.824240|    0.012167|
|        5400|   -6.345018|   -8.584058|    0.824240|    0.012167|
|        5401|   -6.344402|   -8.587612|    0.824240|    0.012167|
|        5402|   -6.343715|   -8.590981|    0.824241|    0.012167|
|        5403|   -6.342966|   -8.594141|    0.824241|    0.012167|
|        5404|   -6.342163|   -8.597068|    0.824241|    0.012167|
|        5405|   -6.341311|   -8.599744|    0.824241|    0.012167|
|        5406|   -6.340418|   -8.602156|    0.824241|    0.012167|
|        5407|   -6.339485|   -8.604294|    0.824241|    0.012166|
|        5408|   -6.338517|   -8.606156|    0.824241|    0.012166|
|        5409|   -6.337518|   -8.607743|    0.824241|    0.012166|
|        5410|   -6.336489|   -8.609064|    0.824241|    0.012166|
|        5411|   -6.335433|   -8.610131|    0.824242|    0.012166|
|        5412|   -6.334355|   -8.610964|    0.824242|    0.012166|
|        5413|   -6.333256|   -8.611581|    0.824242|    0.012166|
|        5414|   -6.332142|   -8.612006|    0.824242|    0.012166|
|        5415|   -6.331017|   -8.612263|    0.824242|    0.012166|
|        5416|   -6.329885|   -8.612376|    0.824242|    0.012166|
|        5417|   -6.328752|   -8.612369|    0.824242|    0.012166|
|        5418|   -6.327623|   -8.612268|    0.824242|    0.012166|
|        5419|   -6.326507|   -8.612112|    0.824242|    0.012166|
|        5420|   -6.325411|   -8.611911|    0.824242|    0.012166|
|        5421|   -6.324342|   -8.611672|    0.824242|    0.012166|
|        5422|   -6.323310|   -8.611406|    0.824242|    0.012165|
|        5423|   -6.322325|   -8.611121|    0.824243|    0.012165|
|        5424|   -6.321397|   -8.610826|    0.824243|    0.012165|
|        5425|   -6.320539|   -8.610525|    0.824243|    0.012165|
|        5426|   -6.319761|   -8.610223|    0.824243|    0.012165|
|        5427|   -6.319077|   -8.609923|    0.824243|    0.012165|
|        5428|   -6.318500|   -8.609627|    0.824243|    0.012165|
|        5429|   -6.318045|   -8.609336|    0.824243|    0.012165|
|        5430|   -6.317726|   -8.609051|    0.824243|    0.012165|
|        5431|   -6.317557|   -8.608773|    0.824243|    0.012165|
|        5432|   -6.317553|   -8.608504|    0.824243|    0.012165|
|        5433|   -6.317730|   -8.608246|    0.824243|    0.012165|
|        5434|   -6.318103|   -8.608002|    0.824243|    0.012165|
|        5435|   -6.318685|   -8.607778|    0.824243|    0.012165|
|        5436|   -6.319490|   -8.607579|    0.824243|    0.012165|
|        5437|   -6.320532|   -8.607414|    0.824243|    0.012165|
|        5438|   -6.321822|   -8.607290|    0.824243|    0.012165|
|        5439|   -6.323371|   -8.607218|    0.824243|    0.012165|
|        5440|   -6.325188|   -8.607211|    0.824243|    0.012166|
|        5441|   -6.327280|   -8.607280|    0.824242|    0.012166|
|        5442|   -6.329653|   -8.607431|    0.824242|    0.012166|
|        5443|   -6.332309|   -8.607674|    0.824242|    0.012166|
|        5444|   -6.335250|   -8.608017|    0.824242|    0.012166|
|        5445|   -6.338471|   -8.608472|    0.824242|    0.012166|
|        5446|   -6.341969|   -8.609047|    0.824242|    0.012166|
|        5447|   -6.345735|   -8.609749|    0.824242|    0.012166|
|        5448|   -6.349757|   -8.610584|    0.824242|    0.012166|
|        5449|   -6.354020|   -8.611558|    0.824242|    0.012166|
|        5450|   -6.358503|   -8.612674|    0.824242|    0.012166|
|        5451|   -6.363186|   -8.613934|    0.824242|    0.012166|
|        5452|   -6.368040|   -8.615335|    0.824241|    0.012166|
|        5453|   -6.373035|   -8.616873|    0.824241|    0.012166|
|        5454|   -6.378136|   -8.618545|    0.824241|    0.012166|
|        5455|   -6.383306|   -8.620348|    0.824241|    0.012166|
|        5456|   -6.388504|   -8.622277|    0.824241|    0.012167|
|        5457|   -6.393685|   -8.624326|    0.824241|    0.012167|
|        5458|   -6.398804|   -8.626488|    0.824240|    0.012167|
|        5459|   -6.403813|   -8.628755|    0.824240|    0.012167|
|        5460|   -6.408663|   -8.631118|    0.824240|    0.012167|
|        5461|   -6.413307|   -8.633566|    0.824240|    0.012167|
|        5462|   -6.417698|   -8.636091|    0.824240|    0.012167|
|        5463|   -6.421793|   -8.638681|    0.824240|    0.012167|
|        5464|   -6.425552|   -8.641326|    0.824239|    0.012167|
|        5465|   -6.428940|   -8.644027|    0.824239|    0.012167|
|        5466|   -6.431929|   -8.646770|    0.824239|    0.012167|
|        5467|   -6.434497|   -8.649542|    0.824239|    0.012167|
|        5468|   -6.436630|   -8.652334|    0.824238|    0.012167|
|        5469|   -6.438321|   -8.655134|    0.824238|    0.012167|
|        5470|   -6.439574|   -8.657930|    0.824238|    0.012167|
|        5471|   -6.440398|   -8.660710|    0.824238|    0.012168|
|        5472|   -6.440811|   -8.663462|    0.824238|    0.012168|
|        5473|   -6.440837|   -8.666171|    0.824237|    0.012168|
|        5474|   -6.440507|   -8.668827|    0.824237|    0.012168|
|        5475|   -6.439856|   -8.671415|    0.824237|    0.012168|
|        5476|   -6.438923|   -8.673925|    0.824237|    0.012168|
|        5477|   -6.437749|   -8.676344|    0.824236|    0.012168|
|        5478|   -6.436378|   -8.678661|    0.824236|    0.012168|
|        5479|   -6.434852|   -8.680865|    0.824236|    0.012168|
|        5480|   -6.433214|   -8.682946|    0.824236|    0.012168|
|        5481|   -6.431506|   -8.684894|    0.824235|    0.012168|
|        5482|   -6.429769|   -8.686701|    0.824235|    0.012168|
|        5483|   -6.428039|   -8.688360|    0.824235|    0.012168|
|        5484|   -6.426352|   -8.689864|    0.824235|    0.012168|
|        5485|   -6.424739|   -8.691211|    0.824234|    0.012168|
|        5486|   -6.423230|   -8.692397|    0.824234|    0.012168|
|        5487|   -6.421852|   -8.693421|    0.824234|    0.012168|
|        5488|   -6.420627|   -8.694286|    0.824234|    0.012168|
|        5489|   -6.419575|   -8.694995|    0.824233|    0.012168|
|        5490|   -6.418713|   -8.695551|    0.824233|    0.012168|
|        5491|   -6.418057|   -8.695964|    0.824233|    0.012168|
|        5492|   -6.417618|   -8.696240|    0.824233|    0.012168|
|        5493|   -6.417405|   -8.696391|    0.824233|    0.012168|
|        5494|   -6.417427|   -8.696428|    0.824232|    0.012168|
|        5495|   -6.417688|   -8.696364|    0.824232|    0.012168|
|        5496|   -6.418192|   -8.696212|    0.824232|    0.012168|
|        5497|   -6.418940|   -8.695988|    0.824232|    0.012168|
|        5498|   -6.419934|   -8.695706|    0.824232|    0.012168|
|        5499|   -6.421172|   -8.695381|    0.824232|    0.012153|
+-----------------------------------------------------------------------+
|Fixed CL Mode (Finite Difference)       |Value                         |
+-----------------------------------------------------------------------+
|Delta CL / Delta AoA                    |0.231458                      |
|Delta CD / Delta CL                     |0.0190773                     |
|Delta CMz / Delta CL                    |-0.000380106                  |
+-----------------------------------------------------------------------+
Writing Flow Meta-Data file: flow.meta

----------------------------- Solver Exit -------------------------------

Maximum number of iterations reached (ITER = 5500) before convergence.
+-----------------------------------------------------------------------+
|      Convergence Field     |     Value    |   Criterion  |  Converged |
+-----------------------------------------------------------------------+
|                    rms[Rho]|      -6.42117|         < -12|          No|
+-----------------------------------------------------------------------+
-------------------------------------------------------------------------

--------------------------- Finalizing Solver ---------------------------
Deleted CNumerics container.
Deleted CIntegration container.
Deleted CSolver container.
Deleted CIteration container.
Deleted CInterface container.
Deleted CGeometry container.
Deleted CFreeFormDefBox class.
Deleted CSurfaceMovement class.
Deleted CVolumetricMovement class.
Deleted CConfig container.
Deleted nInst container.
Deleted COutput class.
-------------------------------------------------------------------------

------------------------- Exit Success (SU2_CFD) ------------------------


-------------------------------------------------------------------------
|    ___ _   _ ___                                                      |
|   / __| | | |_  )   Release 8.0.0 "Harrier"                           |
|   \__ \ |_| |/ /                                                      |
|   |___/\___//___|   Suite (Solution Exporting Code)                   |
|                                                                       |
-------------------------------------------------------------------------
| SU2 Project Website: https://su2code.github.io                        |
|                                                                       |
| The SU2 Project is maintained by the SU2 Foundation                   |
| (http://su2foundation.org)                                            |
-------------------------------------------------------------------------
| Copyright 2012-2023, SU2 Contributors                                 |
|                                                                       |
| SU2 is free software; you can redistribute it and/or                  |
| modify it under the terms of the GNU Lesser General Public            |
| License as published by the Free Software Foundation; either          |
| version 2.1 of the License, or (at your option) any later version.    |
|                                                                       |
| SU2 is distributed in the hope that it will be useful,                |
| but WITHOUT ANY WARRANTY; without even the implied warranty of        |
| MERCHANTABILITY or FITNESS FOR A PARTICULAR PURPOSE. See the GNU      |
| Lesser General Public License for more details.                       |
|                                                                       |
| You should have received a copy of the GNU Lesser General Public      |
| License along with SU2. If not, see <http://www.gnu.org/licenses/>.   |
-------------------------------------------------------------------------

----------------- Physical Case Definition ( Zone 0 ) -------------------
Input mesh file name: mesh_RAE2822_turb_deform.su2

-------------------- Output Information ( Zone 0 ) ----------------------
The tabular file format is CSV (.csv).
Flow variables file name: flow.

------------- Config File Boundary Information ( Zone 0 ) ---------------
+-----------------------------------------------------------------------+
|                        Marker Type|                        Marker Name|
+-----------------------------------------------------------------------+
|                          Far-field|                           FARFIELD|
+-----------------------------------------------------------------------+
|                     Heat flux wall|                            AIRFOIL|
+-----------------------------------------------------------------------+
Two dimensional problem.
13937 grid points before partitioning.
22842 volume elements before partitioning.
2 surface markers.
192 boundary elements in index 0 (Marker = AIRFOIL).
40 boundary elements in index 1 (Marker = FARFIELD).
Executing the partitioning functions.
Building the graph adjacency structure.
Calling ParMETIS... graph partitioning complete (831 edge cuts).
Distributing ParMETIS coloring.
Rebalancing vertices.
Rebalancing volume element connectivity.
Rebalancing markers and surface elements.
14875 vertices including ghost points. 
23674 interior elements including halo cells. 
18780 triangles.
4894 quadrilaterals.
Establishing MPI communication patterns.
Identify vertices.
Storing a mapping from global to local point index.

------------------------- Solution Postprocessing -----------------------
Reading and storing the solution from restart_flow.
Volume output fields: COORDINATES, SOLUTION
  Info: Ignoring the following screen output fields:
  RMS_DENSITY, RMS_NU_TILDE, LIFT, DRAG
Screen output fields: INNER_ITER
  Info: Ignoring the following history output groups:
  RMS_RES, AERO_COEFF
History output group(s): ITER
Warning: No (valid) fields chosen for convergence monitoring. Convergence monitoring inactive.
Warning: No (valid) fields chosen for time convergence monitoring. Time convergence monitoring inactive.
|Paraview                           |flow.vtu                           |
|Paraview surface                   |surface_flow.vtu                   |
|CSV file                           |surface_flow.csv                   |

------------------------- Finalize Solver -------------------------
Deleted CGeometry container.
Deleted CSolver class.
Deleted CConfig container.
Deleted COutput class.

Completed in 0.015551 seconds on 6 cores.

------------------------- Exit Success (SU2_SOL) ------------------------

