
-------------------------------------------------------------------------
|    ___ _   _ ___                                                      |
|   / __| | | |_  )   Release 8.0.0 "Harrier"                           |
|   \__ \ |_| |/ /                                                      |
|   |___/\___//___|   Suite (Computational Fluid Dynamics Code)         |
|                                                                       |
-------------------------------------------------------------------------
| SU2 Project Website: https://su2code.github.io                        |
|                                                                       |
| The SU2 Project is maintained by the SU2 Foundation                   |
| (http://su2foundation.org)                                            |
-------------------------------------------------------------------------
| Copyright 2012-2023, SU2 Contributors                                 |
|                                                                       |
| SU2 is free software; you can redistribute it and/or                  |
| modify it under the terms of the GNU Lesser General Public            |
| License as published by the Free Software Foundation; either          |
| version 2.1 of the License, or (at your option) any later version.    |
|                                                                       |
| SU2 is distributed in the hope that it will be useful,                |
| but WITHOUT ANY WARRANTY; without even the implied warranty of        |
| MERCHANTABILITY or FITNESS FOR A PARTICULAR PURPOSE. See the GNU      |
| Lesser General Public License for more details.                       |
|                                                                       |
| You should have received a copy of the GNU Lesser General Public      |
| License along with SU2. If not, see <http://www.gnu.org/licenses/>.   |
-------------------------------------------------------------------------

Parsing config file for zone 0

----------------- Physical Case Definition ( Zone 0 ) -------------------
Compressible RANS equations.
Turbulence model: Spalart-Allmaras-noft2
Hybrid RANS/LES: No Hybrid RANS/LES
Mach number: 0.734.
Angle of attack (AoA): 2.31 deg, and angle of sideslip (AoS): 0 deg.
Reynolds number: 6.5e+06. Reference length 1.
Fixed CL mode, target value: 0.824.
Reading and writing binary SU2 native restart files.
Read flow solution from: solution_flow.dat.
Dimensional simulation.
The reference area is 1 m^2.
The semi-span will be computed using the max y(3D) value.
The reference length is 1 m.
Reference origin for moment evaluation is (0.25, 0, 0).
Surface(s) where the force coefficients are evaluated: AIRFOIL.

Surface(s) plotted in the output file: AIRFOIL.
Surface(s) affected by the design variables: AIRFOIL.
Input mesh file name: mesh_RAE2822_turb_deform.su2

--------------- Space Numerical Integration ( Zone 0 ) ------------------
Jameson-Schmidt-Turkel scheme (2nd order in space) for the flow inviscid terms.
JST viscous coefficients (2nd & 4th): 0.5, 0.02.
The method includes a grid stretching correction (p = 0.3).
Scalar upwind solver for the turbulence model.
First order integration in space.
Average of gradients with correction (viscous flow terms).
Average of gradients with correction (viscous turbulence terms).
Gradient for viscous and source terms: inverse-distance weighted Least-Squares.

--------------- Time Numerical Integration  ( Zone 0 ) ------------------
Local time stepping (steady state simulation).
Euler implicit method for the flow equations.
FGMRES is used for solving the linear system.
Using a ILU(0) preconditioning.
Convergence criteria of the linear solver: 1e-06.
Max number of linear iterations: 10.
No CFL adaptation.
Courant-Friedrichs-Lewy number:       10
Euler implicit time integration for the turbulence model.

------------------ Convergence Criteria  ( Zone 0 ) ---------------------
Maximum number of solver subiterations: 5500.
Begin convergence monitoring at iteration 10.
Residual minimum value: 1e-12.
Cauchy series min. value: 1e-06.
Number of Cauchy elements: 100.
Begin windowed time average at iteration 0.

-------------------- Output Information ( Zone 0 ) ----------------------
File writing frequency: 
+------------------------------------+
|                     File| Frequency|
+------------------------------------+
|                  RESTART|     10000|
|                 PARAVIEW|     10000|
|         SURFACE_PARAVIEW|     10000|
|              SURFACE_CSV|     10000|
+------------------------------------+
Writing the convergence history file every 1 inner iterations.
Writing the screen convergence history every 1 inner iterations.
The tabular file format is CSV (.csv).
Convergence history file name: history_direct.
Forces breakdown file name: forces_breakdown.dat.
Surface file name: surface_flow.
Volume file name: flow.
Restart file name: restart_flow.dat.

------------- Config File Boundary Information ( Zone 0 ) ---------------
+-----------------------------------------------------------------------+
|                        Marker Type|                        Marker Name|
+-----------------------------------------------------------------------+
|                          Far-field|                           FARFIELD|
+-----------------------------------------------------------------------+
|                     Heat flux wall|                            AIRFOIL|
+-----------------------------------------------------------------------+

-------------------- Output Preprocessing ( Zone 0 ) --------------------

WARNING: SURFACE_PRESSURE_DROP can only be computed for at least 2 surfaces (outlet, inlet, ...)

Screen output fields: INNER_ITER, RMS_DENSITY, RMS_NU_TILDE, LIFT, DRAG
History output group(s): ITER, RMS_RES, AERO_COEFF
Convergence field(s): RMS_DENSITY
Warning: No (valid) fields chosen for time convergence monitoring. Time convergence monitoring inactive.
Volume output fields: COORDINATES, SOLUTION, PRIMITIVE

------------------- Geometry Preprocessing ( Zone 0 ) -------------------
Two dimensional problem.
13937 grid points before partitioning.
22842 volume elements before partitioning.
2 surface markers.
192 boundary elements in index 0 (Marker = AIRFOIL).
40 boundary elements in index 1 (Marker = FARFIELD).
Executing the partitioning functions.
Building the graph adjacency structure.
Calling ParMETIS... graph partitioning complete (831 edge cuts).
Distributing ParMETIS coloring.
Rebalancing vertices.
Rebalancing volume element connectivity.
Rebalancing markers and surface elements.
14875 vertices including ghost points. 
23674 interior elements including halo cells. 
18780 triangles.
4894 quadrilaterals.
Establishing MPI communication patterns.
Setting point connectivity.
Renumbering points (Reverse Cuthill McKee Ordering).
Recomputing point connectivity.
Setting element connectivity.
Checking the numerical grid orientation.
All volume elements are correctly orientend.
All surface elements are correctly orientend.
Identifying edges and vertices.
Setting the control volume structure.
Area of the computational grid: 32209.9.
Searching for the closest normal neighbors to the surfaces.
Storing a mapping from global to local point index.
Compute the surface curvature.
Max K: 209.067. Mean K: 8.39621. Standard deviation K: 27.4146.
Checking for periodicity.
Computing mesh quality statistics for the dual control volumes.
+--------------------------------------------------------------+
|           Mesh Quality Metric|        Minimum|        Maximum|
+--------------------------------------------------------------+
|    Orthogonality Angle (deg.)|        74.4327|        89.9998|
|     CV Face Area Aspect Ratio|        1.00105|        3359.07|
|           CV Sub-Volume Ratio|        1.00066|        1220.04|
+--------------------------------------------------------------+
Finding max control volume width.
Communicating number of neighbors.
Wetted area = 2.0213 m.
Area projection in the x-plane = 0.128119 m, y-plane = 0.995873 m.
Max. coordinate in the x-direction = 1 m, y-direction = 0.061499 m.
Min. coordinate in the x-direction = 0 m, y-direction = -0.062701 m.
Computing wall distances.

-------------------- Solver Preprocessing ( Zone 0 ) --------------------
WARNING: AoA in the solution file (2.76568 deg.) +
         AoA offset in mesh file (0 deg.) = 2.76568 deg.
WARNING: SU2 will use the dCD/dCL provided in the direct solution file: 0.0205539.
WARNING: SU2 will use the dCMz/dCL provided in the direct solution file: 0.014904.
Viscous flow: Computing pressure using the ideal gas law
based on the free-stream temperature and a density computed
from the Reynolds number.
Force coefficients computed using free-stream values.

-- Models:
+------------------------------------------------------------------------------+
|          Viscosity Model|        Conductivity Model|              Fluid Model|
+------------------------------------------------------------------------------+
|               SUTHERLAND|          CONSTANT_PRANDTL|             STANDARD_AIR|
+------------------------------------------------------------------------------+
-- Fluid properties:
+------------------------------------------------------------------------------+
|                  Name|    Dim. value|    Ref. value|      Unit|Non-dim. value|
+------------------------------------------------------------------------------+
|        Ref. Viscosity|     1.716e-05|             1|   N.s/m^2|     1.716e-05|
|      Sutherland Temp.|        273.15|             1|         K|        273.15|
|     Sutherland Const.|         110.4|             1|         K|         110.4|
+------------------------------------------------------------------------------+
|        Prandtl (Lam.)|             -|             -|         -|          0.71|
|       Prandtl (Turb.)|             -|             -|         -|           0.9|
+------------------------------------------------------------------------------+
|          Gas Constant|       287.058|             1|  N.m/kg.K|       287.058|
|      Spec. Heat Ratio|             -|             -|         -|           1.4|
+------------------------------------------------------------------------------+
-- Initial and free-stream conditions:
+------------------------------------------------------------------------------+
|                  Name|    Dim. value|    Ref. value|      Unit|Non-dim. value|
+------------------------------------------------------------------------------+
|       Static Pressure|         38515|             1|        Pa|         38515|
|               Density|      0.465631|             1|    kg/m^3|      0.465631|
|           Temperature|        288.15|             1|         K|        288.15|
|          Total Energy|        237984|             1|   m^2/s^2|        237984|
|            Velocity-X|       249.487|             1|       m/s|       249.487|
|            Velocity-Y|       12.0522|             1|       m/s|       12.0522|
|    Velocity Magnitude|       249.778|             1|       m/s|       249.778|
+------------------------------------------------------------------------------+
|             Viscosity|    1.7893e-05|             1|   N.s/m^2|    1.7893e-05|
|          Conductivity|             -|             1|   W/m^2.K|             -|
|     Turb. Kin. Energy|       233.959|             1|   m^2/s^2|       233.959|
|     Spec. Dissipation|        608834|             1|       1/s|        608834|
+------------------------------------------------------------------------------+
|           Mach Number|             -|             -|         -|         0.734|
|       Reynolds Number|             -|             -|         -|       6.5e+06|
+------------------------------------------------------------------------------+
Initialize Jacobian structure (Navier-Stokes). MG level: 0.
Initialize Jacobian structure (SA model).

------------------- Numerics Preprocessing ( Zone 0 ) -------------------

----------------- Integration Preprocessing ( Zone 0 ) ------------------

------------------- Iteration Preprocessing ( Zone 0 ) ------------------
Euler/Navier-Stokes/RANS fluid iteration.

------------------------------ Begin Solver -----------------------------

Simulation Run using the Single-zone Driver
WARNING: SU2 was not compiled for an AVX-capable architecture. Performance could be better,
         see https://su2code.github.io/docs_v7/Build-SU2-Linux-MacOS/#compiler-optimizations
+----------------------------------------------------------------+
|  Inner_Iter|    rms[Rho]|     rms[nu]|          CL|          CD|
+----------------------------------------------------------------+
|           0|   -4.885806|   -6.301146|    0.824108|    0.011943|
|           1|   -4.940709|   -6.398718|    0.824162|    0.011958|
|           2|   -4.998402|   -6.524936|    0.824176|    0.011967|
|           3|   -5.043218|   -6.677053|    0.824166|    0.011972|
|           4|   -5.075500|   -6.834382|    0.824148|    0.011973|
|           5|   -5.095915|   -6.941884|    0.824131|    0.011973|
|           6|   -5.105674|   -6.963776|    0.824122|    0.011972|
|           7|   -5.107420|   -6.941069|    0.824120|    0.011973|
|           8|   -5.103903|   -6.909546|    0.824124|    0.011975|
|           9|   -5.097001|   -6.875520|    0.824132|    0.011978|
|          10|   -5.087819|   -6.839527|    0.824144|    0.011984|
|          11|   -5.077183|   -6.805974|    0.824158|    0.011990|
|          12|   -5.065901|   -6.781016|    0.824173|    0.011998|
|          13|   -5.054714|   -6.769296|    0.824187|    0.012007|
|          14|   -5.044160|   -6.772954|    0.824200|    0.012016|
|          15|   -5.034541|   -6.791773|    0.824211|    0.012026|
|          16|   -5.025997|   -6.822876|    0.824219|    0.012036|
|          17|   -5.018615|   -6.859478|    0.824223|    0.012046|
|          18|   -5.012491|   -6.889918|    0.824223|    0.012055|
|          19|   -5.007727|   -6.901354|    0.824219|    0.012064|
|          20|   -5.004383|   -6.889555|    0.824211|    0.012072|
|          21|   -5.002420|   -6.862736|    0.824199|    0.012079|
|          22|   -5.001690|   -6.833036|    0.824185|    0.012085|
|          23|   -5.001953|   -6.808788|    0.824167|    0.012090|
|          24|   -5.002929|   -6.793615|    0.824148|    0.012094|
|          25|   -5.004361|   -6.788043|    0.824128|    0.012097|
|          26|   -5.006043|   -6.790811|    0.824108|    0.012099|
|          27|   -5.007837|   -6.799536|    0.824087|    0.012100|
|          28|   -5.009650|   -6.811104|    0.824067|    0.012101|
|          29|   -5.011398|   -6.822191|    0.824048|    0.012100|
|          30|   -5.012977|   -6.830047|    0.824030|    0.012100|
|          31|   -5.014239|   -6.833325|    0.824013|    0.012098|
|          32|   -5.014999|   -6.832411|    0.823996|    0.012096|
|          33|   -5.015064|   -6.828997|    0.823981|    0.012094|
|          34|   -5.014267|   -6.825248|    0.823966|    0.012091|
|          35|   -5.012515|   -6.823103|    0.823952|    0.012087|
|          36|   -5.009803|   -6.823942|    0.823939|    0.012084|
|          37|   -5.006221|   -6.828560|    0.823925|    0.012080|
|          38|   -5.001925|   -6.837245|    0.823912|    0.012076|
|          39|   -4.997110|   -6.849880|    0.823899|    0.012072|
|          40|   -4.991974|   -6.866002|    0.823886|    0.012067|
|          41|   -4.986693|   -6.884819|    0.823872|    0.012063|
|          42|   -4.981407|   -6.905193|    0.823859|    0.012059|
|          43|   -4.976215|   -6.925640|    0.823846|    0.012054|
|          44|   -4.971173|   -6.944404|    0.823832|    0.012050|
|          45|   -4.966294|   -6.959664|    0.823820|    0.012046|
|          46|   -4.961553|   -6.969905|    0.823807|    0.012042|
|          47|   -4.956894|   -6.974333|    0.823795|    0.012038|
|          48|   -4.952235|   -6.973121|    0.823784|    0.012035|
|          49|   -4.947480|   -6.967330|    0.823774|    0.012031|
|          50|   -4.942537|   -6.958545|    0.823765|    0.012027|
|          51|   -4.937328|   -6.948448|    0.823757|    0.012024|
|          52|   -4.931807|   -6.938502|    0.823751|    0.012020|
|          53|   -4.925963|   -6.929811|    0.823746|    0.012017|
|          54|   -4.919825|   -6.923102|    0.823743|    0.012013|
|          55|   -4.913456|   -6.918777|    0.823741|    0.012010|
|          56|   -4.906944|   -6.916983|    0.823742|    0.012006|
|          57|   -4.900385|   -6.917670|    0.823744|    0.012003|
|          58|   -4.893877|   -6.920654|    0.823748|    0.012000|
|          59|   -4.887503|   -6.925653|    0.823753|    0.011996|
|          60|   -4.881329|   -6.932327|    0.823759|    0.011993|
|          61|   -4.875396|   -6.940298|    0.823767|    0.011990|
|          62|   -4.869725|   -6.949172|    0.823776|    0.011987|
|          63|   -4.864317|   -6.958554|    0.823785|    0.011984|
|          64|   -4.859162|   -6.968062|    0.823795|    0.011981|
|          65|   -4.854242|   -6.977334|    0.823806|    0.011978|
|          66|   -4.849538|   -6.986049|    0.823816|    0.011975|
|          67|   -4.845036|   -6.993941|    0.823827|    0.011973|
|          68|   -4.840731|   -7.000820|    0.823837|    0.011970|
|          69|   -4.836623|   -7.006592|    0.823847|    0.011968|
|          70|   -4.832722|   -7.011261|    0.823856|    0.011966|
|          71|   -4.829042|   -7.014922|    0.823865|    0.011963|
|          72|   -4.825601|   -7.017737|    0.823873|    0.011962|
|          73|   -4.822415|   -7.019901|    0.823881|    0.011960|
|          74|   -4.819496|   -7.021603|    0.823887|    0.011958|
|          75|   -4.816851|   -7.022991|    0.823893|    0.011956|
|          76|   -4.814476|   -7.024153|    0.823898|    0.011955|
|          77|   -4.812362|   -7.025109|    0.823903|    0.011953|
|          78|   -4.810491|   -7.025821|    0.823907|    0.011952|
|          79|   -4.808839|   -7.026214|    0.823911|    0.011951|
|          80|   -4.807377|   -7.026208|    0.823913|    0.011949|
|          81|   -4.806077|   -7.025744|    0.823916|    0.011948|
|          82|   -4.804908|   -7.024812|    0.823918|    0.011947|
|          83|   -4.803845|   -7.023463|    0.823920|    0.011947|
|          84|   -4.802866|   -7.021808|    0.823922|    0.011946|
|          85|   -4.801957|   -7.020002|    0.823923|    0.011945|
|          86|   -4.801109|   -7.018226|    0.823924|    0.011944|
|          87|   -4.800325|   -7.016665|    0.823925|    0.011944|
|          88|   -4.799614|   -7.015485|    0.823927|    0.011943|
|          89|   -4.798992|   -7.014825|    0.823928|    0.011943|
|          90|   -4.798485|   -7.014784|    0.823929|    0.011943|
|          91|   -4.798123|   -7.015419|    0.823930|    0.011943|
|          92|   -4.797939|   -7.016746|    0.823931|    0.011943|
|          93|   -4.797970|   -7.018750|    0.823933|    0.011943|
|          94|   -4.798255|   -7.021390|    0.823935|    0.011943|
|          95|   -4.798830|   -7.024607|    0.823937|    0.011944|
|          96|   -4.799726|   -7.028332|    0.823939|    0.011944|
|          97|   -4.800973|   -7.032496|    0.823941|    0.011945|
|          98|   -4.802590|   -7.037031|    0.823944|    0.011946|
|          99|   -4.804590|   -7.041876|    0.823947|    0.011947|
|         100|   -4.806971|   -7.046975|    0.823950|    0.011948|
|         101|   -4.809722|   -7.052281|    0.823954|    0.011953|
+-----------------------------------------------------------------------+
|Fixed CL Mode                           |Value                         |
+-----------------------------------------------------------------------+
|Current CL                              |0.823954                      |
|Target CL                               |0.824                         |
|Previous AOA                            |2.76568                       |
|Changed AoA by                          |0.000249663                   |
+-----------------------------------------------------------------------+
+----------------------------------------------------------------+
|  Inner_Iter|    rms[Rho]|     rms[nu]|          CL|          CD|
+----------------------------------------------------------------+
|         102|   -3.794676|   -7.053667|    0.823957|    0.011955|
|         103|   -4.177593|   -7.061459|    0.823961|    0.011956|
|         104|   -4.419171|   -7.067723|    0.823965|    0.011958|
|         105|   -4.490615|   -7.073761|    0.823969|    0.011960|
|         106|   -4.529793|   -7.079780|    0.823974|    0.011962|
|         107|   -4.576074|   -7.085823|    0.823978|    0.011964|
|         108|   -4.627044|   -7.091896|    0.823982|    0.011966|
|         109|   -4.671149|   -7.097995|    0.823986|    0.011968|
|         110|   -4.701212|   -7.104117|    0.823990|    0.011970|
|         111|   -4.719226|   -7.110255|    0.823994|    0.011973|
|         112|   -4.730344|   -7.116401|    0.823997|    0.011975|
|         113|   -4.737733|   -7.122543|    0.824000|    0.011977|
|         114|   -4.742858|   -7.128669|    0.824003|    0.011980|
|         115|   -4.746996|   -7.134752|    0.824006|    0.011982|
|         116|   -4.751482|   -7.140754|    0.824008|    0.011984|
|         117|   -4.757121|   -7.146631|    0.824009|    0.011986|
|         118|   -4.763819|   -7.152335|    0.824011|    0.011988|
|         119|   -4.770779|   -7.157826|    0.824012|    0.011990|
|         120|   -4.777089|   -7.163070|    0.824012|    0.011992|
|         121|   -4.782252|   -7.168046|    0.824012|    0.011994|
|         122|   -4.786343|   -7.172744|    0.824012|    0.011996|
|         123|   -4.789766|   -7.177170|    0.824012|    0.011997|
|         124|   -4.792891|   -7.181345|    0.824011|    0.011999|
|         125|   -4.795836|   -7.185303|    0.824011|    0.012000|
|         126|   -4.798469|   -7.189095|    0.824010|    0.012002|
|         127|   -4.800542|   -7.192777|    0.824009|    0.012003|
|         128|   -4.801831|   -7.196410|    0.824008|    0.012004|
|         129|   -4.802215|   -7.200058|    0.824007|    0.012005|
|         130|   -4.801701|   -7.203775|    0.824006|    0.012007|
|         131|   -4.800404|   -7.207607|    0.824005|    0.012008|
|         132|   -4.798516|   -7.211584|    0.824005|    0.012009|
|         133|   -4.796270|   -7.215724|    0.824004|    0.012010|
|         134|   -4.793893|   -7.220024|    0.824004|    0.012011|
|         135|   -4.791569|   -7.224466|    0.824003|    0.012012|
|         136|   -4.789407|   -7.229014|    0.824003|    0.012013|
|         137|   -4.787440|   -7.233618|    0.824003|    0.012014|
|         138|   -4.785630|   -7.238212|    0.824004|    0.012015|
|         139|   -4.783891|   -7.242727|    0.824004|    0.012016|
|         140|   -4.782115|   -7.247088|    0.824004|    0.012017|
|         141|   -4.780197|   -7.251222|    0.824005|    0.012018|
|         142|   -4.778059|   -7.255061|    0.824006|    0.012019|
|         143|   -4.775662|   -7.258555|    0.824006|    0.012020|
|         144|   -4.773015|   -7.261663|    0.824007|    0.012021|
|         145|   -4.770168|   -7.264367|    0.824008|    0.012022|
|         146|   -4.767196|   -7.266664|    0.824008|    0.012023|
|         147|   -4.764182|   -7.268572|    0.824009|    0.012024|
|         148|   -4.761201|   -7.270127|    0.824010|    0.012025|
|         149|   -4.758308|   -7.271378|    0.824010|    0.012026|
|         150|   -4.755534|   -7.272387|    0.824010|    0.012027|
|         151|   -4.752887|   -7.273230|    0.824011|    0.012027|
|         152|   -4.750360|   -7.273985|    0.824011|    0.012028|
|         153|   -4.747939|   -7.274729|    0.824011|    0.012029|
|         154|   -4.745609|   -7.275534|    0.824011|    0.012029|
|         155|   -4.743360|   -7.276457|    0.824011|    0.012029|
|         156|   -4.741190|   -7.277543|    0.824011|    0.012030|
|         157|   -4.739107|   -7.278824|    0.824010|    0.012030|
|         158|   -4.737121|   -7.280315|    0.824010|    0.012030|
|         159|   -4.735251|   -7.282016|    0.824010|    0.012030|
|         160|   -4.733512|   -7.283908|    0.824009|    0.012031|
|         161|   -4.731921|   -7.285964|    0.824009|    0.012031|
|         162|   -4.730491|   -7.288149|    0.824008|    0.012030|
|         163|   -4.729230|   -7.290424|    0.824008|    0.012030|
|         164|   -4.728144|   -7.292747|    0.824008|    0.012030|
|         165|   -4.727236|   -7.295081|    0.824007|    0.012030|
|         166|   -4.726503|   -7.297395|    0.824007|    0.012029|
|         167|   -4.725944|   -7.299670|    0.824007|    0.012029|
|         168|   -4.725551|   -7.301897|    0.824007|    0.012029|
|         169|   -4.725319|   -7.304080|    0.824007|    0.012028|
|         170|   -4.725235|   -7.306228|    0.824007|    0.012028|
|         171|   -4.725289|   -7.308370|    0.824008|    0.012027|
|         172|   -4.725466|   -7.310544|    0.824008|    0.012026|
|         173|   -4.725752|   -7.312792|    0.824009|    0.012026|
|         174|   -4.726128|   -7.315161|    0.824010|    0.012025|
|         175|   -4.726579|   -7.317692|    0.824010|    0.012024|
|         176|   -4.727089|   -7.320425|    0.824011|    0.012024|
|         177|   -4.727644|   -7.323395|    0.824012|    0.012023|
|         178|   -4.728232|   -7.326630|    0.824013|    0.012022|
|         179|   -4.728846|   -7.330141|    0.824015|    0.012021|
|         180|   -4.729483|   -7.333925|    0.824016|    0.012021|
|         181|   -4.730148|   -7.337970|    0.824017|    0.012020|
|         182|   -4.730848|   -7.342247|    0.824018|    0.012019|
|         183|   -4.731601|   -7.346717|    0.824020|    0.012018|
|         184|   -4.732427|   -7.351330|    0.824021|    0.012017|
|         185|   -4.733354|   -7.356030|    0.824022|    0.012016|
|         186|   -4.734414|   -7.360752|    0.824023|    0.012015|
|         187|   -4.735642|   -7.365426|    0.824024|    0.012014|
|         188|   -4.737075|   -7.369988|    0.824026|    0.012013|
|         189|   -4.738750|   -7.374378|    0.824027|    0.012012|
|         190|   -4.740703|   -7.378544|    0.824028|    0.012011|
|         191|   -4.742967|   -7.382447|    0.824028|    0.012010|
|         192|   -4.745569|   -7.386061|    0.824029|    0.012009|
|         193|   -4.748529|   -7.389382|    0.824030|    0.012008|
|         194|   -4.751861|   -7.392424|    0.824031|    0.012007|
|         195|   -4.755565|   -7.395215|    0.824031|    0.012006|
|         196|   -4.759633|   -7.397800|    0.824032|    0.012005|
|         197|   -4.764045|   -7.400230|    0.824032|    0.012003|
|         198|   -4.768767|   -7.402571|    0.824033|    0.012002|
|         199|   -4.773751|   -7.404894|    0.824033|    0.012001|
|         200|   -4.778938|   -7.407270|    0.824033|    0.012000|
|         201|   -4.784255|   -7.409772|    0.824034|    0.011997|
+-----------------------------------------------------------------------+
|Fixed CL Mode                           |Value                         |
+-----------------------------------------------------------------------+
|Current CL                              |0.824034                      |
|Target CL                               |0.824                         |
|Previous AOA                            |2.76593                       |
|Changed AoA by                          |-0.000166927                  |
+-----------------------------------------------------------------------+
+----------------------------------------------------------------+
|  Inner_Iter|    rms[Rho]|     rms[nu]|          CL|          CD|
+----------------------------------------------------------------+
|         202|   -3.966412|   -7.401354|    0.824034|    0.011996|
|         203|   -4.330034|   -7.409076|    0.824034|    0.011994|
|         204|   -4.525392|   -7.413578|    0.824034|    0.011993|
|         205|   -4.576195|   -7.417892|    0.824035|    0.011992|
|         206|   -4.609905|   -7.422487|    0.824035|    0.011991|
|         207|   -4.651830|   -7.427453|    0.824035|    0.011991|
|         208|   -4.697395|   -7.432789|    0.824035|    0.011990|
|         209|   -4.736796|   -7.438459|    0.824036|    0.011989|
|         210|   -4.764235|   -7.444409|    0.824036|    0.011988|
|         211|   -4.780709|   -7.450557|    0.824036|    0.011987|
|         212|   -4.789875|   -7.456819|    0.824037|    0.011987|
|         213|   -4.794496|   -7.463119|    0.824037|    0.011986|
|         214|   -4.796293|   -7.469383|    0.824038|    0.011985|
|         215|   -4.796733|   -7.475533|    0.824038|    0.011985|
|         216|   -4.797125|   -7.481478|    0.824039|    0.011984|
|         217|   -4.798284|   -7.487121|    0.824039|    0.011984|
|         218|   -4.800364|   -7.492363|    0.824040|    0.011984|
|         219|   -4.803036|   -7.497122|    0.824041|    0.011983|
|         220|   -4.805866|   -7.501328|    0.824041|    0.011983|
|         221|   -4.808618|   -7.504924|    0.824042|    0.011983|
|         222|   -4.811352|   -7.507875|    0.824043|    0.011983|
|         223|   -4.814315|   -7.510173|    0.824044|    0.011983|
|         224|   -4.817771|   -7.511828|    0.824045|    0.011983|
|         225|   -4.821891|   -7.512879|    0.824046|    0.011983|
|         226|   -4.826740|   -7.513391|    0.824047|    0.011984|
|         227|   -4.832321|   -7.513448|    0.824048|    0.011984|
|         228|   -4.838614|   -7.513149|    0.824050|    0.011984|
|         229|   -4.845608|   -7.512602|    0.824051|    0.011985|
|         230|   -4.853296|   -7.511916|    0.824052|    0.011985|
|         231|   -4.861682|   -7.511200|    0.824054|    0.011985|
|         232|   -4.870780|   -7.510556|    0.824055|    0.011986|
|         233|   -4.880613|   -7.510081|    0.824057|    0.011987|
|         234|   -4.891214|   -7.509858|    0.824058|    0.011987|
|         235|   -4.902610|   -7.509957|    0.824060|    0.011988|
|         236|   -4.914811|   -7.510432|    0.824061|    0.011989|
|         237|   -4.927796|   -7.511323|    0.824063|    0.011989|
|         238|   -4.941498|   -7.512652|    0.824065|    0.011990|
|         239|   -4.955805|   -7.514424|    0.824067|    0.011991|
|         240|   -4.970556|   -7.516629|    0.824068|    0.011992|
|         241|   -4.985550|   -7.519236|    0.824070|    0.011993|
|         242|   -5.000560|   -7.522202|    0.824072|    0.011993|
|         243|   -5.015352|   -7.525464|    0.824074|    0.011994|
|         244|   -5.029709|   -7.528949|    0.824076|    0.011995|
|         245|   -5.043449|   -7.532574|    0.824078|    0.011996|
|         246|   -5.056435|   -7.536249|    0.824079|    0.011997|
|         247|   -5.068577|   -7.539881|    0.824081|    0.011998|
|         248|   -5.079812|   -7.543377|    0.824083|    0.011999|
|         249|   -5.090099|   -7.546645|    0.824084|    0.012000|
|         250|   -5.099399|   -7.549607|    0.824085|    0.012001|
|         251|   -5.107673|   -7.552193|    0.824087|    0.012001|
|         252|   -5.114884|   -7.554358|    0.824088|    0.012002|
|         253|   -5.121006|   -7.556075|    0.824089|    0.012003|
|         254|   -5.126038|   -7.557342|    0.824090|    0.012004|
|         255|   -5.130008|   -7.558177|    0.824091|    0.012005|
|         256|   -5.132984|   -7.558623|    0.824091|    0.012006|
|         257|   -5.135064|   -7.558743|    0.824091|    0.012006|
|         258|   -5.136370|   -7.558612|    0.824091|    0.012007|
|         259|   -5.137038|   -7.558317|    0.824091|    0.012008|
|         260|   -5.137204|   -7.557948|    0.824091|    0.012008|
|         261|   -5.136998|   -7.557596|    0.824091|    0.012009|
|         262|   -5.136532|   -7.557347|    0.824090|    0.012010|
|         263|   -5.135906|   -7.557275|    0.824089|    0.012010|
|         264|   -5.135202|   -7.557441|    0.824088|    0.012011|
|         265|   -5.134488|   -7.557889|    0.824086|    0.012011|
|         266|   -5.133822|   -7.558646|    0.824085|    0.012012|
|         267|   -5.133251|   -7.559717|    0.824083|    0.012012|
|         268|   -5.132818|   -7.561085|    0.824082|    0.012012|
|         269|   -5.132557|   -7.562706|    0.824080|    0.012012|
|         270|   -5.132497|   -7.564518|    0.824078|    0.012013|
|         271|   -5.132664|   -7.566435|    0.824075|    0.012013|
|         272|   -5.133077|   -7.568358|    0.824073|    0.012013|
|         273|   -5.133753|   -7.570173|    0.824071|    0.012013|
|         274|   -5.134703|   -7.571755|    0.824069|    0.012013|
|         275|   -5.135935|   -7.572983|    0.824066|    0.012013|
|         276|   -5.137456|   -7.573738|    0.824064|    0.012013|
|         277|   -5.139266|   -7.573922|    0.824062|    0.012013|
|         278|   -5.141367|   -7.573458|    0.824059|    0.012013|
|         279|   -5.143756|   -7.572301|    0.824057|    0.012013|
|         280|   -5.146429|   -7.570439|    0.824055|    0.012013|
|         281|   -5.149381|   -7.567899|    0.824053|    0.012013|
|         282|   -5.152603|   -7.564738|    0.824051|    0.012013|
|         283|   -5.156085|   -7.561047|    0.824049|    0.012012|
|         284|   -5.159814|   -7.556941|    0.824048|    0.012012|
|         285|   -5.163775|   -7.552553|    0.824046|    0.012012|
|         286|   -5.167951|   -7.548022|    0.824045|    0.012012|
|         287|   -5.172323|   -7.543491|    0.824043|    0.012011|
|         288|   -5.176868|   -7.539096|    0.824042|    0.012011|
|         289|   -5.181564|   -7.534964|    0.824041|    0.012011|
|         290|   -5.186384|   -7.531208|    0.824040|    0.012010|
|         291|   -5.191304|   -7.527927|    0.824040|    0.012010|
|         292|   -5.196295|   -7.525202|    0.824039|    0.012009|
|         293|   -5.201332|   -7.523097|    0.824039|    0.012009|
|         294|   -5.206388|   -7.521662|    0.824039|    0.012008|
|         295|   -5.211438|   -7.520929|    0.824039|    0.012008|
|         296|   -5.216459|   -7.520914|    0.824039|    0.012007|
|         297|   -5.221429|   -7.521622|    0.824039|    0.012007|
|         298|   -5.226331|   -7.523042|    0.824039|    0.012006|
|         299|   -5.231147|   -7.525150|    0.824039|    0.012006|
|         300|   -5.235864|   -7.527914|    0.824040|    0.012005|
|         301|   -5.240474|   -7.531288|    0.824040|    0.012002|
+-----------------------------------------------------------------------+
|Fixed CL Mode                           |Value                         |
+-----------------------------------------------------------------------+
|Current CL                              |0.82404                       |
|Target CL                               |0.824                         |
|Previous AOA                            |2.76577                       |
|Changed AoA by                          |-0.000198098                  |
+-----------------------------------------------------------------------+
+----------------------------------------------------------------+
|  Inner_Iter|    rms[Rho]|     rms[nu]|          CL|          CD|
+----------------------------------------------------------------+
|         302|   -3.895935|   -7.509744|    0.824041|    0.012001|
|         303|   -4.277300|   -7.526179|    0.824041|    0.012001|
|         304|   -4.513554|   -7.534675|    0.824042|    0.012000|
|         305|   -4.588100|   -7.541880|    0.824043|    0.011999|
|         306|   -4.638991|   -7.548780|    0.824044|    0.011999|
|         307|   -4.704269|   -7.555565|    0.824045|    0.011998|
|         308|   -4.783081|   -7.562264|    0.824046|    0.011998|
|         309|   -4.862670|   -7.568882|    0.824046|    0.011997|
|         310|   -4.928720|   -7.575407|    0.824047|    0.011996|
|         311|   -4.975748|   -7.581805|    0.824048|    0.011996|
|         312|   -5.006553|   -7.588043|    0.824049|    0.011995|
|         313|   -5.024915|   -7.594119|    0.824051|    0.011995|
|         314|   -5.034022|   -7.600051|    0.824052|    0.011994|
|         315|   -5.038219|   -7.605849|    0.824053|    0.011994|
|         316|   -5.042378|   -7.611513|    0.824054|    0.011993|
|         317|   -5.049810|   -7.617033|    0.824055|    0.011993|
|         318|   -5.061280|   -7.622412|    0.824056|    0.011992|
|         319|   -5.075457|   -7.627673|    0.824057|    0.011992|
|         320|   -5.090153|   -7.632850|    0.824059|    0.011991|
|         321|   -5.103680|   -7.637979|    0.824060|    0.011991|
|         322|   -5.115599|   -7.643090|    0.824061|    0.011990|
|         323|   -5.126489|   -7.648207|    0.824062|    0.011990|
|         324|   -5.137145|   -7.653346|    0.824063|    0.011990|
|         325|   -5.147939|   -7.658524|    0.824065|    0.011989|
|         326|   -5.158687|   -7.663758|    0.824066|    0.011989|
|         327|   -5.168861|   -7.669072|    0.824067|    0.011989|
|         328|   -5.177902|   -7.674488|    0.824068|    0.011988|
|         329|   -5.185405|   -7.680030|    0.824070|    0.011988|
|         330|   -5.191194|   -7.685719|    0.824071|    0.011988|
|         331|   -5.195319|   -7.691569|    0.824072|    0.011988|
|         332|   -5.198037|   -7.697589|    0.824074|    0.011987|
|         333|   -5.199772|   -7.703779|    0.824075|    0.011987|
|         334|   -5.201030|   -7.710129|    0.824076|    0.011987|
|         335|   -5.202285|   -7.716618|    0.824078|    0.011987|
|         336|   -5.203884|   -7.723215|    0.824079|    0.011987|
|         337|   -5.205996|   -7.729880|    0.824080|    0.011987|
|         338|   -5.208599|   -7.736568|    0.824081|    0.011987|
|         339|   -5.211514|   -7.743231|    0.824083|    0.011987|
|         340|   -5.214457|   -7.749816|    0.824084|    0.011987|
|         341|   -5.217108|   -7.756272|    0.824085|    0.011987|
|         342|   -5.219189|   -7.762546|    0.824086|    0.011987|
|         343|   -5.220534|   -7.768587|    0.824087|    0.011987|
|         344|   -5.221135|   -7.774348|    0.824088|    0.011987|
|         345|   -5.221141|   -7.779787|    0.824089|    0.011987|
|         346|   -5.220813|   -7.784868|    0.824090|    0.011988|
|         347|   -5.220454|   -7.789558|    0.824091|    0.011988|
|         348|   -5.220339|   -7.793829|    0.824092|    0.011988|
|         349|   -5.220666|   -7.797661|    0.824093|    0.011988|
|         350|   -5.221537|   -7.801039|    0.824093|    0.011988|
|         351|   -5.222959|   -7.803961|    0.824094|    0.011989|
|         352|   -5.224868|   -7.806428|    0.824094|    0.011989|
|         353|   -5.227168|   -7.808454|    0.824095|    0.011989|
|         354|   -5.229753|   -7.810061|    0.824095|    0.011989|
|         355|   -5.232544|   -7.811284|    0.824095|    0.011990|
|         356|   -5.235495|   -7.812161|    0.824095|    0.011990|
|         357|   -5.238603|   -7.812742|    0.824095|    0.011990|
|         358|   -5.241898|   -7.813083|    0.824095|    0.011991|
|         359|   -5.245430|   -7.813250|    0.824094|    0.011991|
|         360|   -5.249256|   -7.813312|    0.824094|    0.011991|
|         361|   -5.253430|   -7.813342|    0.824093|    0.011991|
|         362|   -5.257992|   -7.813411|    0.824092|    0.011992|
|         363|   -5.262964|   -7.813594|    0.824091|    0.011992|
|         364|   -5.268355|   -7.813960|    0.824090|    0.011992|
|         365|   -5.274159|   -7.814577|    0.824089|    0.011993|
|         366|   -5.280364|   -7.815505|    0.824088|    0.011993|
|         367|   -5.286949|   -7.816797|    0.824087|    0.011993|
|         368|   -5.293893|   -7.818499|    0.824085|    0.011994|
|         369|   -5.301172|   -7.820645|    0.824084|    0.011994|
|         370|   -5.308758|   -7.823261|    0.824082|    0.011994|
|         371|   -5.316623|   -7.826360|    0.824081|    0.011994|
|         372|   -5.324732|   -7.829942|    0.824079|    0.011995|
|         373|   -5.333045|   -7.833994|    0.824077|    0.011995|
|         374|   -5.341513|   -7.838488|    0.824076|    0.011995|
|         375|   -5.350082|   -7.843378|    0.824074|    0.011995|
|         376|   -5.358689|   -7.848604|    0.824072|    0.011996|
|         377|   -5.367266|   -7.854087|    0.824071|    0.011996|
|         378|   -5.375740|   -7.859733|    0.824069|    0.011996|
|         379|   -5.384031|   -7.865432|    0.824067|    0.011996|
|         380|   -5.392063|   -7.871061|    0.824065|    0.011996|
|         381|   -5.399755|   -7.876487|    0.824064|    0.011997|
|         382|   -5.407033|   -7.881577|    0.824062|    0.011997|
|         383|   -5.413826|   -7.886197|    0.824061|    0.011997|
|         384|   -5.420072|   -7.890223|    0.824059|    0.011997|
|         385|   -5.425719|   -7.893552|    0.824058|    0.011997|
|         386|   -5.430728|   -7.896103|    0.824056|    0.011997|
|         387|   -5.435073|   -7.897826|    0.824055|    0.011998|
|         388|   -5.438743|   -7.898710|    0.824054|    0.011998|
|         389|   -5.441743|   -7.898776|    0.824053|    0.011998|
|         390|   -5.444090|   -7.898082|    0.824052|    0.011998|
|         391|   -5.445816|   -7.896717|    0.824051|    0.011998|
|         392|   -5.446961|   -7.894792|    0.824050|    0.011998|
|         393|   -5.447577|   -7.892438|    0.824049|    0.011998|
|         394|   -5.447718|   -7.889794|    0.824048|    0.011998|
|         395|   -5.447443|   -7.887001|    0.824047|    0.011998|
|         396|   -5.446813|   -7.884195|    0.824047|    0.011998|
|         397|   -5.445885|   -7.881503|    0.824046|    0.011998|
|         398|   -5.444718|   -7.879040|    0.824045|    0.011998|
|         399|   -5.443362|   -7.876903|    0.824045|    0.011998|
|         400|   -5.441868|   -7.875176|    0.824044|    0.011998|
|         401|   -5.440278|   -7.873925|    0.824044|    0.011995|
+-----------------------------------------------------------------------+
|Fixed CL Mode                           |Value                         |
+-----------------------------------------------------------------------+
|Current CL                              |0.824044                      |
|Target CL                               |0.824                         |
|Previous AOA                            |2.76557                       |
|Changed AoA by                          |-0.000222204                  |
+-----------------------------------------------------------------------+
+----------------------------------------------------------------+
|  Inner_Iter|    rms[Rho]|     rms[nu]|          CL|          CD|
+----------------------------------------------------------------+
|         402|   -3.846579|   -7.755946|    0.824044|    0.011995|
|         403|   -4.230487|   -7.807932|    0.824043|    0.011995|
|         404|   -4.472298|   -7.826372|    0.824043|    0.011994|
|         405|   -4.549187|   -7.837615|    0.824043|    0.011994|
|         406|   -4.601438|   -7.846327|    0.824043|    0.011994|
|         407|   -4.669323|   -7.853658|    0.824043|    0.011994|
|         408|   -4.752796|   -7.860047|    0.824042|    0.011994|
|         409|   -4.839056|   -7.865796|    0.824042|    0.011994|
|         410|   -4.912361|   -7.871100|    0.824042|    0.011994|
|         411|   -4.965406|   -7.876012|    0.824042|    0.011994|
|         412|   -5.000266|   -7.880565|    0.824042|    0.011993|
|         413|   -5.020733|   -7.884877|    0.824042|    0.011993|
|         414|   -5.030339|   -7.889119|    0.824042|    0.011993|
|         415|   -5.034284|   -7.893392|    0.824042|    0.011993|
|         416|   -5.038477|   -7.897659|    0.824042|    0.011993|
|         417|   -5.046930|   -7.901803|    0.824042|    0.011993|
|         418|   -5.060609|   -7.905716|    0.824042|    0.011992|
|         419|   -5.077964|   -7.909328|    0.824042|    0.011992|
|         420|   -5.096347|   -7.912613|    0.824042|    0.011992|
|         421|   -5.113642|   -7.915541|    0.824042|    0.011992|
|         422|   -5.129269|   -7.918061|    0.824042|    0.011992|
|         423|   -5.143989|   -7.920093|    0.824042|    0.011991|
|         424|   -5.158905|   -7.921566|    0.824042|    0.011991|
|         425|   -5.174581|   -7.922425|    0.824042|    0.011991|
|         426|   -5.190796|   -7.922656|    0.824042|    0.011991|
|         427|   -5.206791|   -7.922298|    0.824042|    0.011991|
|         428|   -5.221671|   -7.921417|    0.824042|    0.011991|
|         429|   -5.234714|   -7.920106|    0.824042|    0.011990|
|         430|   -5.245530|   -7.918473|    0.824042|    0.011990|
|         431|   -5.254121|   -7.916632|    0.824042|    0.011990|
|         432|   -5.260881|   -7.914693|    0.824042|    0.011990|
|         433|   -5.266531|   -7.912759|    0.824042|    0.011990|
|         434|   -5.271969|   -7.910910|    0.824042|    0.011990|
|         435|   -5.278062|   -7.909204|    0.824042|    0.011990|
|         436|   -5.285477|   -7.907684|    0.824042|    0.011990|
|         437|   -5.294573|   -7.906374|    0.824042|    0.011989|
|         438|   -5.305365|   -7.905287|    0.824042|    0.011989|
|         439|   -5.317535|   -7.904423|    0.824042|    0.011989|
|         440|   -5.330481|   -7.903775|    0.824041|    0.011989|
|         441|   -5.343405|   -7.903333|    0.824041|    0.011989|
|         442|   -5.355457|   -7.903080|    0.824041|    0.011989|
|         443|   -5.365933|   -7.903000|    0.824041|    0.011989|
|         444|   -5.374465|   -7.903074|    0.824041|    0.011989|
|         445|   -5.381112|   -7.903280|    0.824041|    0.011989|
|         446|   -5.386320|   -7.903593|    0.824041|    0.011989|
|         447|   -5.390750|   -7.903977|    0.824041|    0.011989|
|         448|   -5.395078|   -7.904394|    0.824040|    0.011989|
|         449|   -5.399818|   -7.904797|    0.824040|    0.011989|
|         450|   -5.405239|   -7.905133|    0.824040|    0.011989|
|         451|   -5.411351|   -7.905349|    0.824040|    0.011989|
|         452|   -5.417947|   -7.905389|    0.824039|    0.011989|
|         453|   -5.424685|   -7.905202|    0.824039|    0.011989|
|         454|   -5.431185|   -7.904744|    0.824039|    0.011989|
|         455|   -5.437114|   -7.903975|    0.824038|    0.011990|
|         456|   -5.442252|   -7.902865|    0.824038|    0.011990|
|         457|   -5.446524|   -7.901401|    0.824037|    0.011990|
|         458|   -5.449984|   -7.899587|    0.824037|    0.011990|
|         459|   -5.452782|   -7.897445|    0.824036|    0.011990|
|         460|   -5.455104|   -7.895011|    0.824035|    0.011990|
|         461|   -5.457135|   -7.892340|    0.824035|    0.011990|
|         462|   -5.459023|   -7.889497|    0.824034|    0.011990|
|         463|   -5.460870|   -7.886560|    0.824033|    0.011990|
|         464|   -5.462735|   -7.883614|    0.824032|    0.011991|
|         465|   -5.464644|   -7.880746|    0.824031|    0.011991|
|         466|   -5.466607|   -7.878048|    0.824030|    0.011991|
|         467|   -5.468632|   -7.875606|    0.824029|    0.011991|
|         468|   -5.470726|   -7.873503|    0.824028|    0.011991|
|         469|   -5.472908|   -7.871812|    0.824027|    0.011991|
|         470|   -5.475201|   -7.870597|    0.824025|    0.011991|
|         471|   -5.477632|   -7.869909|    0.824024|    0.011992|
|         472|   -5.480230|   -7.869785|    0.824023|    0.011992|
|         473|   -5.483018|   -7.870249|    0.824022|    0.011992|
|         474|   -5.486014|   -7.871307|    0.824021|    0.011992|
|         475|   -5.489232|   -7.872946|    0.824020|    0.011992|
|         476|   -5.492680|   -7.875140|    0.824018|    0.011992|
|         477|   -5.496361|   -7.877842|    0.824017|    0.011992|
|         478|   -5.500275|   -7.880989|    0.824016|    0.011992|
|         479|   -5.504421|   -7.884500|    0.824015|    0.011993|
|         480|   -5.508796|   -7.888278|    0.824015|    0.011993|
|         481|   -5.513395|   -7.892215|    0.824014|    0.011993|
|         482|   -5.518211|   -7.896192|    0.824013|    0.011993|
|         483|   -5.523237|   -7.900083|    0.824012|    0.011993|
|         484|   -5.528462|   -7.903766|    0.824012|    0.011993|
|         485|   -5.533875|   -7.907122|    0.824011|    0.011993|
|         486|   -5.539461|   -7.910049|    0.824011|    0.011993|
|         487|   -5.545204|   -7.912464|    0.824010|    0.011993|
|         488|   -5.551087|   -7.914309|    0.824010|    0.011993|
|         489|   -5.557087|   -7.915558|    0.824010|    0.011993|
|         490|   -5.563182|   -7.916215|    0.824010|    0.011993|
|         491|   -5.569346|   -7.916317|    0.824010|    0.011993|
|         492|   -5.575550|   -7.915930|    0.824010|    0.011993|
|         493|   -5.581765|   -7.915141|    0.824010|    0.011993|
|         494|   -5.587958|   -7.914058|    0.824010|    0.011993|
|         495|   -5.594091|   -7.912798|    0.824010|    0.011993|
|         496|   -5.600128|   -7.911482|    0.824010|    0.011993|
|         497|   -5.606028|   -7.910228|    0.824011|    0.011993|
|         498|   -5.611748|   -7.909150|    0.824011|    0.011993|
|         499|   -5.617247|   -7.908348|    0.824011|    0.011993|
|         500|   -5.622482|   -7.907911|    0.824012|    0.011993|
|         501|   -5.627408|   -7.907909|    0.824012|    0.011992|
+-----------------------------------------------------------------------+
|Fixed CL Mode                           |Value                         |
+-----------------------------------------------------------------------+
|Current CL                              |0.824012                      |
|Target CL                               |0.824                         |
|Previous AOA                            |2.76535                       |
|Changed AoA by                          |-5.94683e-05                  |
+-----------------------------------------------------------------------+
+----------------------------------------------------------------+
|  Inner_Iter|    rms[Rho]|     rms[nu]|          CL|          CD|
+----------------------------------------------------------------+
|         502|   -4.418636|   -7.896105|    0.824013|    0.011992|
|         503|   -4.800259|   -7.903441|    0.824013|    0.011992|
|         504|   -5.035178|   -7.906857|    0.824014|    0.011992|
|         505|   -5.106265|   -7.909982|    0.824014|    0.011992|
|         506|   -5.153116|   -7.913357|    0.824015|    0.011992|
|         507|   -5.213258|   -7.917078|    0.824015|    0.011991|
|         508|   -5.284936|   -7.921146|    0.824016|    0.011991|
|         509|   -5.355279|   -7.925540|    0.824017|    0.011991|
|         510|   -5.411483|   -7.930224|    0.824017|    0.011991|
|         511|   -5.450034|   -7.935145|    0.824018|    0.011991|
|         512|   -5.474539|   -7.940245|    0.824018|    0.011991|
|         513|   -5.488804|   -7.945471|    0.824019|    0.011990|
|         514|   -5.495644|   -7.950774|    0.824019|    0.011990|
|         515|   -5.498436|   -7.956099|    0.824019|    0.011990|
|         516|   -5.500831|   -7.961382|    0.824020|    0.011990|
|         517|   -5.505280|   -7.966557|    0.824020|    0.011990|
|         518|   -5.512305|   -7.971563|    0.824020|    0.011989|
|         519|   -5.520903|   -7.976353|    0.824021|    0.011989|
|         520|   -5.529562|   -7.980894|    0.824021|    0.011989|
|         521|   -5.537254|   -7.985159|    0.824021|    0.011989|
|         522|   -5.543846|   -7.989123|    0.824021|    0.011989|
|         523|   -5.549821|   -7.992766|    0.824021|    0.011988|
|         524|   -5.555706|   -7.996078|    0.824021|    0.011988|
|         525|   -5.561690|   -7.999054|    0.824021|    0.011988|
|         526|   -5.567586|   -8.001703|    0.824021|    0.011988|
|         527|   -5.573028|   -8.004041|    0.824021|    0.011988|
|         528|   -5.577677|   -8.006093|    0.824021|    0.011988|
|         529|   -5.581349|   -8.007891|    0.824021|    0.011987|
|         530|   -5.584038|   -8.009466|    0.824020|    0.011987|
|         531|   -5.585897|   -8.010853|    0.824020|    0.011987|
|         532|   -5.587198|   -8.012081|    0.824020|    0.011987|
|         533|   -5.588290|   -8.013179|    0.824019|    0.011987|
|         534|   -5.589538|   -8.014169|    0.824019|    0.011987|
|         535|   -5.591257|   -8.015068|    0.824018|    0.011987|
|         536|   -5.593663|   -8.015889|    0.824018|    0.011987|
|         537|   -5.596844|   -8.016643|    0.824018|    0.011986|
|         538|   -5.600765|   -8.017339|    0.824017|    0.011986|
|         539|   -5.605292|   -8.017986|    0.824017|    0.011986|
|         540|   -5.610220|   -8.018595|    0.824016|    0.011986|
|         541|   -5.615318|   -8.019177|    0.824016|    0.011986|
|         542|   -5.620378|   -8.019748|    0.824015|    0.011986|
|         543|   -5.625252|   -8.020327|    0.824015|    0.011986|
|         544|   -5.629880|   -8.020935|    0.824014|    0.011986|
|         545|   -5.634298|   -8.021597|    0.824013|    0.011986|
|         546|   -5.638618|   -8.022338|    0.824013|    0.011986|
|         547|   -5.642986|   -8.023185|    0.824012|    0.011986|
|         548|   -5.647545|   -8.024164|    0.824012|    0.011986|
|         549|   -5.652394|   -8.025296|    0.824012|    0.011987|
|         550|   -5.657572|   -8.026600|    0.824011|    0.011987|
|         551|   -5.663052|   -8.028088|    0.824011|    0.011987|
|         552|   -5.668753|   -8.029766|    0.824010|    0.011987|
|         553|   -5.674562|   -8.031631|    0.824010|    0.011987|
|         554|   -5.680353|   -8.033670|    0.824009|    0.011987|
|         555|   -5.686011|   -8.035860|    0.824009|    0.011987|
|         556|   -5.691445|   -8.038170|    0.824008|    0.011988|
|         557|   -5.696593|   -8.040555|    0.824008|    0.011988|
|         558|   -5.701424|   -8.042964|    0.824008|    0.011988|
|         559|   -5.705924|   -8.045331|    0.824007|    0.011988|
|         560|   -5.710093|   -8.047578|    0.824007|    0.011989|
|         561|   -5.713932|   -8.049641|    0.824006|    0.011989|
|         562|   -5.717438|   -8.051452|    0.824006|    0.011989|
|         563|   -5.720602|   -8.052950|    0.824006|    0.011989|
|         564|   -5.723410|   -8.054085|    0.824005|    0.011990|
|         565|   -5.725846|   -8.054818|    0.824005|    0.011990|
|         566|   -5.727894|   -8.055125|    0.824004|    0.011990|
|         567|   -5.729548|   -8.055001|    0.824004|    0.011991|
|         568|   -5.730806|   -8.054456|    0.824004|    0.011991|
|         569|   -5.731675|   -8.053518|    0.824003|    0.011991|
|         570|   -5.732172|   -8.052231|    0.824003|    0.011991|
|         571|   -5.732321|   -8.050651|    0.824002|    0.011992|
|         572|   -5.732150|   -8.048846|    0.824002|    0.011992|
|         573|   -5.731691|   -8.046889|    0.824001|    0.011992|
|         574|   -5.730980|   -8.044856|    0.824001|    0.011993|
|         575|   -5.730056|   -8.042823|    0.824001|    0.011993|
|         576|   -5.728956|   -8.040861|    0.824000|    0.011993|
|         577|   -5.727720|   -8.039035|    0.824000|    0.011994|
|         578|   -5.726389|   -8.037402|    0.823999|    0.011994|
|         579|   -5.725003|   -8.036007|    0.823999|    0.011994|
|         580|   -5.723600|   -8.034883|    0.823998|    0.011995|
|         581|   -5.722220|   -8.034053|    0.823998|    0.011995|
|         582|   -5.720901|   -8.033527|    0.823997|    0.011995|
|         583|   -5.719677|   -8.033302|    0.823997|    0.011995|
|         584|   -5.718583|   -8.033364|    0.823996|    0.011996|
|         585|   -5.717650|   -8.033690|    0.823996|    0.011996|
|         586|   -5.716908|   -8.034247|    0.823996|    0.011996|
|         587|   -5.716384|   -8.034996|    0.823995|    0.011996|
|         588|   -5.716101|   -8.035892|    0.823995|    0.011997|
|         589|   -5.716082|   -8.036885|    0.823994|    0.011997|
|         590|   -5.716347|   -8.037925|    0.823994|    0.011997|
|         591|   -5.716912|   -8.038963|    0.823994|    0.011997|
|         592|   -5.717792|   -8.039953|    0.823993|    0.011997|
|         593|   -5.718999|   -8.040853|    0.823993|    0.011997|
|         594|   -5.720542|   -8.041629|    0.823993|    0.011997|
|         595|   -5.722429|   -8.042253|    0.823993|    0.011998|
|         596|   -5.724663|   -8.042707|    0.823992|    0.011998|
|         597|   -5.727246|   -8.042980|    0.823992|    0.011998|
|         598|   -5.730178|   -8.043071|    0.823992|    0.011998|
|         599|   -5.733453|   -8.042985|    0.823992|    0.011998|
|         600|   -5.737066|   -8.042733|    0.823991|    0.011998|
|         601|   -5.741006|   -8.042333|    0.823991|    0.011998|
+-----------------------------------------------------------------------+
|Fixed CL Mode                           |Value                         |
+-----------------------------------------------------------------------+
|Current CL                              |0.823991                      |
|Target CL                               |0.824                         |
|Previous AOA                            |2.76529                       |
|Changed AoA by                          |4.27839e-05                   |
+-----------------------------------------------------------------------+
+----------------------------------------------------------------+
|  Inner_Iter|    rms[Rho]|     rms[nu]|          CL|          CD|
+----------------------------------------------------------------+
|         602|   -4.561003|   -8.029348|    0.823991|    0.011998|
|         603|   -4.941165|   -8.034938|    0.823991|    0.011998|
|         604|   -5.176233|   -8.036107|    0.823991|    0.011998|
|         605|   -5.250560|   -8.036328|    0.823991|    0.011998|
|         606|   -5.300182|   -8.036166|    0.823991|    0.011998|
|         607|   -5.362321|   -8.035792|    0.823991|    0.011998|
|         608|   -5.435294|   -8.035293|    0.823990|    0.011998|
|         609|   -5.505863|   -8.034731|    0.823990|    0.011998|
|         610|   -5.560943|   -8.034144|    0.823990|    0.011998|
|         611|   -5.597537|   -8.033553|    0.823990|    0.011997|
|         612|   -5.620186|   -8.032970|    0.823990|    0.011997|
|         613|   -5.633388|   -8.032411|    0.823990|    0.011997|
|         614|   -5.640279|   -8.031896|    0.823990|    0.011997|
|         615|   -5.644268|   -8.031439|    0.823990|    0.011997|
|         616|   -5.648877|   -8.031045|    0.823990|    0.011996|
|         617|   -5.656394|   -8.030716|    0.823990|    0.011996|
|         618|   -5.667159|   -8.030458|    0.823990|    0.011996|
|         619|   -5.679900|   -8.030279|    0.823989|    0.011996|
|         620|   -5.692723|   -8.030192|    0.823989|    0.011996|
|         621|   -5.704196|   -8.030210|    0.823989|    0.011995|
|         622|   -5.713925|   -8.030345|    0.823989|    0.011995|
|         623|   -5.722357|   -8.030606|    0.823989|    0.011995|
|         624|   -5.730150|   -8.031003|    0.823989|    0.011995|
|         625|   -5.737677|   -8.031543|    0.823989|    0.011994|
|         626|   -5.744914|   -8.032236|    0.823989|    0.011994|
|         627|   -5.751591|   -8.033088|    0.823988|    0.011994|
|         628|   -5.757404|   -8.034103|    0.823988|    0.011993|
|         629|   -5.762131|   -8.035283|    0.823988|    0.011993|
|         630|   -5.765676|   -8.036627|    0.823988|    0.011993|
|         631|   -5.768075|   -8.038131|    0.823988|    0.011993|
|         632|   -5.769491|   -8.039787|    0.823988|    0.011992|
|         633|   -5.770204|   -8.041584|    0.823988|    0.011992|
|         634|   -5.770561|   -8.043510|    0.823988|    0.011992|
|         635|   -5.770911|   -8.045551|    0.823988|    0.011992|
|         636|   -5.771531|   -8.047690|    0.823988|    0.011991|
|         637|   -5.772591|   -8.049908|    0.823987|    0.011991|
|         638|   -5.774137|   -8.052183|    0.823987|    0.011991|
|         639|   -5.776112|   -8.054497|    0.823987|    0.011991|
|         640|   -5.778380|   -8.056835|    0.823987|    0.011991|
|         641|   -5.780770|   -8.059183|    0.823988|    0.011990|
|         642|   -5.783124|   -8.061532|    0.823988|    0.011990|
|         643|   -5.785337|   -8.063877|    0.823988|    0.011990|
|         644|   -5.787389|   -8.066217|    0.823988|    0.011990|
|         645|   -5.789348|   -8.068556|    0.823988|    0.011990|
|         646|   -5.791352|   -8.070902|    0.823988|    0.011990|
|         647|   -5.793572|   -8.073265|    0.823988|    0.011989|
|         648|   -5.796170|   -8.075660|    0.823989|    0.011989|
|         649|   -5.799266|   -8.078103|    0.823989|    0.011989|
|         650|   -5.802923|   -8.080615|    0.823989|    0.011989|
|         651|   -5.807146|   -8.083215|    0.823990|    0.011989|
|         652|   -5.811889|   -8.085925|    0.823990|    0.011989|
|         653|   -5.817079|   -8.088768|    0.823990|    0.011989|
|         654|   -5.822636|   -8.091766|    0.823991|    0.011989|
|         655|   -5.828487|   -8.094938|    0.823991|    0.011989|
|         656|   -5.834582|   -8.098305|    0.823992|    0.011989|
|         657|   -5.840895|   -8.101882|    0.823992|    0.011989|
|         658|   -5.847426|   -8.105683|    0.823993|    0.011989|
|         659|   -5.854186|   -8.109720|    0.823994|    0.011989|
|         660|   -5.861195|   -8.113999|    0.823994|    0.011989|
|         661|   -5.868467|   -8.118522|    0.823995|    0.011989|
|         662|   -5.876009|   -8.123286|    0.823995|    0.011989|
|         663|   -5.883812|   -8.128285|    0.823996|    0.011990|
|         664|   -5.891855|   -8.133507|    0.823997|    0.011990|
|         665|   -5.900104|   -8.138936|    0.823997|    0.011990|
|         666|   -5.908517|   -8.144554|    0.823998|    0.011990|
|         667|   -5.917043|   -8.150335|    0.823999|    0.011990|
|         668|   -5.925628|   -8.156252|    0.823999|    0.011990|
|         669|   -5.934217|   -8.162272|    0.824000|    0.011990|
|         670|   -5.942749|   -8.168362|    0.824001|    0.011991|
|         671|   -5.951162|   -8.174485|    0.824001|    0.011991|
|         672|   -5.959393|   -8.180604|    0.824002|    0.011991|
|         673|   -5.967375|   -8.186683|    0.824002|    0.011991|
|         674|   -5.975040|   -8.192687|    0.824003|    0.011992|
|         675|   -5.982320|   -8.198581|    0.824004|    0.011992|
|         676|   -5.989148|   -8.204332|    0.824004|    0.011992|
|         677|   -5.995463|   -8.209918|    0.824004|    0.011992|
|         678|   -6.001210|   -8.215321|    0.824005|    0.011993|
|         679|   -6.006345|   -8.220534|    0.824005|    0.011993|
|         680|   -6.010834|   -8.225554|    0.824006|    0.011993|
|         681|   -6.014659|   -8.230389|    0.824006|    0.011993|
|         682|   -6.017816|   -8.235051|    0.824006|    0.011994|
|         683|   -6.020313|   -8.239561|    0.824006|    0.011994|
|         684|   -6.022178|   -8.243947|    0.824006|    0.011994|
|         685|   -6.023448|   -8.248238|    0.824006|    0.011994|
|         686|   -6.024174|   -8.252470|    0.824007|    0.011995|
|         687|   -6.024416|   -8.256678|    0.824007|    0.011995|
|         688|   -6.024242|   -8.260900|    0.824007|    0.011995|
|         689|   -6.023726|   -8.265172|    0.824007|    0.011995|
|         690|   -6.022943|   -8.269530|    0.824006|    0.011996|
|         691|   -6.021970|   -8.274004|    0.824006|    0.011996|
|         692|   -6.020882|   -8.278623|    0.824006|    0.011996|
|         693|   -6.019754|   -8.283410|    0.824006|    0.011996|
|         694|   -6.018653|   -8.288383|    0.824006|    0.011996|
|         695|   -6.017646|   -8.293553|    0.824005|    0.011997|
|         696|   -6.016790|   -8.298929|    0.824005|    0.011997|
|         697|   -6.016141|   -8.304509|    0.824005|    0.011997|
|         698|   -6.015745|   -8.310289|    0.824005|    0.011997|
|         699|   -6.015647|   -8.316259|    0.824004|    0.011997|
|         700|   -6.015882|   -8.322401|    0.824004|    0.011998|
|         701|   -6.016484|   -8.328696|    0.824003|    0.011997|
+-----------------------------------------------------------------------+
|Fixed CL Mode                           |Value                         |
+-----------------------------------------------------------------------+
|Current CL                              |0.824003                      |
|Target CL                               |0.824                         |
|Previous AOA                            |2.76533                       |
|Changed AoA by                          |-1.92618e-05                  |
+-----------------------------------------------------------------------+
+----------------------------------------------------------------+
|  Inner_Iter|    rms[Rho]|     rms[nu]|          CL|          CD|
+----------------------------------------------------------------+
|         702|   -4.907736|   -8.326380|    0.824003|    0.011998|
|         703|   -5.289409|   -8.337313|    0.824003|    0.011998|
|         704|   -5.527785|   -8.344972|    0.824002|    0.011998|
|         705|   -5.601882|   -8.352100|    0.824002|    0.011998|
|         706|   -5.648671|   -8.359104|    0.824001|    0.011998|
|         707|   -5.706213|   -8.366022|    0.824001|    0.011998|
|         708|   -5.772263|   -8.372808|    0.824001|    0.011998|
|         709|   -5.833449|   -8.379400|    0.824000|    0.011998|
|         710|   -5.878282|   -8.385747|    0.824000|    0.011998|
|         711|   -5.905948|   -8.391805|    0.823999|    0.011998|
|         712|   -5.921965|   -8.397551|    0.823999|    0.011998|
|         713|   -5.930947|   -8.402984|    0.823998|    0.011998|
|         714|   -5.935819|   -8.408123|    0.823998|    0.011998|
|         715|   -5.939378|   -8.412981|    0.823997|    0.011998|
|         716|   -5.944312|   -8.417569|    0.823997|    0.011998|
|         717|   -5.952268|   -8.421892|    0.823997|    0.011998|
|         718|   -5.963330|   -8.425950|    0.823996|    0.011998|
|         719|   -5.976300|   -8.429750|    0.823996|    0.011998|
|         720|   -5.989507|   -8.433296|    0.823995|    0.011998|
|         721|   -6.001699|   -8.436595|    0.823995|    0.011998|
|         722|   -6.012522|   -8.439650|    0.823995|    0.011998|
|         723|   -6.022374|   -8.442461|    0.823994|    0.011998|
|         724|   -6.031886|   -8.445028|    0.823994|    0.011997|
|         725|   -6.041490|   -8.447358|    0.823994|    0.011997|
|         726|   -6.051284|   -8.449456|    0.823993|    0.011997|
|         727|   -6.061115|   -8.451331|    0.823993|    0.011997|
|         728|   -6.070721|   -8.452997|    0.823993|    0.011997|
|         729|   -6.079829|   -8.454468|    0.823993|    0.011997|
|         730|   -6.088205|   -8.455763|    0.823992|    0.011997|
|         731|   -6.095687|   -8.456903|    0.823992|    0.011996|
|         732|   -6.102229|   -8.457912|    0.823992|    0.011996|
|         733|   -6.107926|   -8.458814|    0.823992|    0.011996|
|         734|   -6.112993|   -8.459639|    0.823992|    0.011996|
|         735|   -6.117713|   -8.460415|    0.823992|    0.011996|
|         736|   -6.122350|   -8.461173|    0.823991|    0.011995|
|         737|   -6.127089|   -8.461944|    0.823991|    0.011995|
|         738|   -6.132001|   -8.462758|    0.823991|    0.011995|
|         739|   -6.137033|   -8.463642|    0.823991|    0.011995|
|         740|   -6.142035|   -8.464626|    0.823991|    0.011995|
|         741|   -6.146794|   -8.465733|    0.823991|    0.011994|
|         742|   -6.151094|   -8.466988|    0.823991|    0.011994|
|         743|   -6.154775|   -8.468412|    0.823991|    0.011994|
|         744|   -6.157778|   -8.470024|    0.823991|    0.011994|
|         745|   -6.160157|   -8.471841|    0.823991|    0.011994|
|         746|   -6.162064|   -8.473877|    0.823991|    0.011993|
|         747|   -6.163704|   -8.476142|    0.823991|    0.011993|
|         748|   -6.165282|   -8.478648|    0.823991|    0.011993|
|         749|   -6.166962|   -8.481399|    0.823991|    0.011993|
|         750|   -6.168840|   -8.484402|    0.823991|    0.011993|
|         751|   -6.170943|   -8.487659|    0.823991|    0.011992|
|         752|   -6.173241|   -8.491172|    0.823991|    0.011992|
|         753|   -6.175670|   -8.494941|    0.823991|    0.011992|
|         754|   -6.178157|   -8.498967|    0.823991|    0.011992|
|         755|   -6.180639|   -8.503247|    0.823991|    0.011992|
|         756|   -6.183078|   -8.507782|    0.823991|    0.011992|
|         757|   -6.185461|   -8.512572|    0.823991|    0.011991|
|         758|   -6.187800|   -8.517615|    0.823991|    0.011991|
|         759|   -6.190121|   -8.522910|    0.823991|    0.011991|
|         760|   -6.192455|   -8.528456|    0.823991|    0.011991|
|         761|   -6.194828|   -8.534250|    0.823991|    0.011991|
|         762|   -6.197255|   -8.540291|    0.823991|    0.011991|
|         763|   -6.199739|   -8.546576|    0.823991|    0.011991|
|         764|   -6.202272|   -8.553103|    0.823991|    0.011991|
|         765|   -6.204835|   -8.559865|    0.823991|    0.011991|
|         766|   -6.207404|   -8.566860|    0.823991|    0.011991|
|         767|   -6.209952|   -8.574077|    0.823991|    0.011990|
|         768|   -6.212451|   -8.581507|    0.823991|    0.011990|
|         769|   -6.214872|   -8.589135|    0.823991|    0.011990|
|         770|   -6.217190|   -8.596946|    0.823991|    0.011990|
|         771|   -6.219378|   -8.604919|    0.823991|    0.011990|
|         772|   -6.221412|   -8.613028|    0.823992|    0.011990|
|         773|   -6.223268|   -8.621247|    0.823992|    0.011990|
|         774|   -6.224922|   -8.629543|    0.823992|    0.011990|
|         775|   -6.226354|   -8.637883|    0.823992|    0.011990|
|         776|   -6.227545|   -8.646231|    0.823992|    0.011991|
|         777|   -6.228479|   -8.654549|    0.823992|    0.011991|
|         778|   -6.229145|   -8.662797|    0.823992|    0.011991|
|         779|   -6.229536|   -8.670940|    0.823992|    0.011991|
|         780|   -6.229649|   -8.678940|    0.823992|    0.011991|
|         781|   -6.229486|   -8.686764|    0.823992|    0.011991|
|         782|   -6.229056|   -8.694383|    0.823992|    0.011991|
|         783|   -6.228369|   -8.701771|    0.823993|    0.011991|
|         784|   -6.227443|   -8.708907|    0.823993|    0.011991|
|         785|   -6.226298|   -8.715775|    0.823993|    0.011991|
|         786|   -6.224956|   -8.722361|    0.823993|    0.011992|
|         787|   -6.223445|   -8.728655|    0.823993|    0.011992|
|         788|   -6.221795|   -8.734649|    0.823993|    0.011992|
|         789|   -6.220035|   -8.740335|    0.823994|    0.011992|
|         790|   -6.218198|   -8.745707|    0.823994|    0.011992|
|         791|   -6.216318|   -8.750755|    0.823994|    0.011992|
|         792|   -6.214426|   -8.755468|    0.823994|    0.011993|
|         793|   -6.212555|   -8.759835|    0.823994|    0.011993|
|         794|   -6.210737|   -8.763840|    0.823994|    0.011993|
|         795|   -6.209001|   -8.767468|    0.823995|    0.011993|
|         796|   -6.207375|   -8.770703|    0.823995|    0.011993|
|         797|   -6.205884|   -8.773531|    0.823995|    0.011993|
|         798|   -6.204551|   -8.775939|    0.823995|    0.011994|
|         799|   -6.203395|   -8.777923|    0.823995|    0.011994|
|         800|   -6.202433|   -8.779480|    0.823995|    0.011994|
|         801|   -6.201678|   -8.780619|    0.823995|    0.011994|
+-----------------------------------------------------------------------+
|Fixed CL Mode                           |Value                         |
+-----------------------------------------------------------------------+
|Current CL                              |0.823995                      |
|Target CL                               |0.824                         |
|Previous AOA                            |2.76531                       |
|Changed AoA by                          |2.37079e-05                   |
+-----------------------------------------------------------------------+
+----------------------------------------------------------------+
|  Inner_Iter|    rms[Rho]|     rms[nu]|          CL|          CD|
+----------------------------------------------------------------+
|         802|   -4.818082|   -8.686858|    0.823995|    0.011995|
|         803|   -5.200314|   -8.729810|    0.823996|    0.011995|
|         804|   -5.438238|   -8.744346|    0.823996|    0.011995|
|         805|   -5.513052|   -8.752256|    0.823996|    0.011995|
|         806|   -5.563757|   -8.757364|    0.823996|    0.011995|
|         807|   -5.629046|   -8.760751|    0.823996|    0.011996|
|         808|   -5.708109|   -8.762956|    0.823996|    0.011996|
|         809|   -5.787994|   -8.764392|    0.823996|    0.011996|
|         810|   -5.854048|   -8.765349|    0.823996|    0.011996|
|         811|   -5.900635|   -8.765974|    0.823996|    0.011996|
|         812|   -5.930716|   -8.766365|    0.823996|    0.011996|
|         813|   -5.948326|   -8.766670|    0.823996|    0.011996|
|         814|   -5.956827|   -8.767041|    0.823996|    0.011997|
|         815|   -5.960616|   -8.767596|    0.823996|    0.011997|
|         816|   -5.964519|   -8.768368|    0.823996|    0.011997|
|         817|   -5.971772|   -8.769350|    0.823996|    0.011997|
|         818|   -5.983074|   -8.770545|    0.823995|    0.011997|
|         819|   -5.997039|   -8.771987|    0.823995|    0.011997|
|         820|   -6.011438|   -8.773729|    0.823995|    0.011997|
|         821|   -6.024560|   -8.775811|    0.823995|    0.011997|
|         822|   -6.035955|   -8.778242|    0.823995|    0.011997|
|         823|   -6.046194|   -8.780999|    0.823995|    0.011997|
|         824|   -6.056071|   -8.784040|    0.823995|    0.011997|
|         825|   -6.065966|   -8.787312|    0.823994|    0.011997|
|         826|   -6.075702|   -8.790759|    0.823994|    0.011997|
|         827|   -6.084780|   -8.794331|    0.823994|    0.011997|
|         828|   -6.092670|   -8.797978|    0.823994|    0.011997|
|         829|   -6.099006|   -8.801665|    0.823994|    0.011997|
|         830|   -6.103641|   -8.805330|    0.823994|    0.011997|
|         831|   -6.106651|   -8.808891|    0.823993|    0.011997|
|         832|   -6.108308|   -8.812295|    0.823993|    0.011997|
|         833|   -6.109040|   -8.815470|    0.823993|    0.011997|
|         834|   -6.109347|   -8.818337|    0.823993|    0.011997|
|         835|   -6.109695|   -8.820815|    0.823993|    0.011997|
|         836|   -6.110425|   -8.822811|    0.823992|    0.011997|
|         837|   -6.111701|   -8.824233|    0.823992|    0.011997|
|         838|   -6.113513|   -8.824998|    0.823992|    0.011997|
|         839|   -6.115696|   -8.825031|    0.823992|    0.011997|
|         840|   -6.117989|   -8.824271|    0.823992|    0.011997|
|         841|   -6.120095|   -8.822678|    0.823992|    0.011997|
|         842|   -6.121753|   -8.820232|    0.823991|    0.011997|
|         843|   -6.122807|   -8.816941|    0.823991|    0.011996|
|         844|   -6.123242|   -8.812833|    0.823991|    0.011996|
|         845|   -6.123184|   -8.807966|    0.823991|    0.011996|
|         846|   -6.122865|   -8.802408|    0.823991|    0.011996|
|         847|   -6.122554|   -8.796246|    0.823991|    0.011996|
|         848|   -6.122500|   -8.789576|    0.823991|    0.011996|
|         849|   -6.122879|   -8.782506|    0.823991|    0.011996|
|         850|   -6.123782|   -8.775146|    0.823991|    0.011996|
|         851|   -6.125210|   -8.767609|    0.823991|    0.011996|
|         852|   -6.127101|   -8.759995|    0.823991|    0.011995|
|         853|   -6.129358|   -8.752428|    0.823991|    0.011995|
|         854|   -6.131878|   -8.745012|    0.823991|    0.011995|
|         855|   -6.134575|   -8.737851|    0.823991|    0.011995|
|         856|   -6.137395|   -8.731038|    0.823991|    0.011995|
|         857|   -6.140319|   -8.724660|    0.823991|    0.011995|
|         858|   -6.143357|   -8.718798|    0.823991|    0.011995|
|         859|   -6.146538|   -8.713527|    0.823991|    0.011995|
|         860|   -6.149894|   -8.708911|    0.823991|    0.011994|
|         861|   -6.153451|   -8.705011|    0.823991|    0.011994|
|         862|   -6.157224|   -8.701876|    0.823992|    0.011994|
|         863|   -6.161209|   -8.699551|    0.823992|    0.011994|
|         864|   -6.165389|   -8.698070|    0.823992|    0.011994|
|         865|   -6.169733|   -8.697462|    0.823992|    0.011994|
|         866|   -6.174202|   -8.697745|    0.823993|    0.011994|
|         867|   -6.178753|   -8.698927|    0.823993|    0.011994|
|         868|   -6.183339|   -8.701008|    0.823993|    0.011994|
|         869|   -6.187914|   -8.703976|    0.823993|    0.011994|
|         870|   -6.192432|   -8.707805|    0.823994|    0.011993|
|         871|   -6.196846|   -8.712457|    0.823994|    0.011993|
|         872|   -6.201111|   -8.717878|    0.823994|    0.011993|
|         873|   -6.205180|   -8.723999|    0.823995|    0.011993|
|         874|   -6.209005|   -8.730733|    0.823995|    0.011993|
|         875|   -6.212540|   -8.737975|    0.823995|    0.011993|
|         876|   -6.215744|   -8.745603|    0.823995|    0.011993|
|         877|   -6.218576|   -8.753478|    0.823996|    0.011993|
|         878|   -6.221002|   -8.761449|    0.823996|    0.011993|
|         879|   -6.222997|   -8.769352|    0.823996|    0.011993|
|         880|   -6.224541|   -8.777021|    0.823996|    0.011993|
|         881|   -6.225624|   -8.784290|    0.823997|    0.011993|
|         882|   -6.226247|   -8.791008|    0.823997|    0.011993|
|         883|   -6.226419|   -8.797042|    0.823997|    0.011993|
|         884|   -6.226156|   -8.802293|    0.823997|    0.011993|
|         885|   -6.225485|   -8.806693|    0.823998|    0.011993|
|         886|   -6.224438|   -8.810218|    0.823998|    0.011993|
|         887|   -6.223055|   -8.812887|    0.823998|    0.011993|
|         888|   -6.221378|   -8.814756|    0.823998|    0.011993|
|         889|   -6.219455|   -8.815916|    0.823998|    0.011993|
|         890|   -6.217333|   -8.816485|    0.823998|    0.011993|
|         891|   -6.215062|   -8.816593|    0.823998|    0.011993|
|         892|   -6.212690|   -8.816379|    0.823999|    0.011993|
|         893|   -6.210265|   -8.815980|    0.823999|    0.011993|
|         894|   -6.207832|   -8.815523|    0.823999|    0.011993|
|         895|   -6.205432|   -8.815122|    0.823999|    0.011993|
|         896|   -6.203104|   -8.814874|    0.823999|    0.011993|
|         897|   -6.200885|   -8.814854|    0.823999|    0.011993|
|         898|   -6.198805|   -8.815117|    0.823999|    0.011993|
|         899|   -6.196894|   -8.815701|    0.823999|    0.011993|
|         900|   -6.195176|   -8.816620|    0.823999|    0.011993|
|         901|   -6.193673|   -8.817873|    0.823999|    0.011993|
+-----------------------------------------------------------------------+
|Fixed CL Mode                           |Value                         |
+-----------------------------------------------------------------------+
|Current CL                              |0.823999                      |
|Target CL                               |0.824                         |
|Previous AOA                            |2.76533                       |
[...]
|        5298|   -6.047885|   -7.938114|    0.824239|    0.011999|
|        5299|   -6.054591|   -7.942001|    0.824239|    0.011999|
|        5300|   -6.060859|   -7.945965|    0.824239|    0.011999|
|        5301|   -6.066658|   -7.950016|    0.824240|    0.011999|
|        5302|   -6.071967|   -7.954161|    0.824240|    0.011998|
|        5303|   -6.076778|   -7.958403|    0.824240|    0.011998|
|        5304|   -6.081097|   -7.962743|    0.824240|    0.011998|
|        5305|   -6.084942|   -7.967180|    0.824240|    0.011998|
|        5306|   -6.088342|   -7.971709|    0.824240|    0.011998|
|        5307|   -6.091337|   -7.976326|    0.824240|    0.011998|
|        5308|   -6.093975|   -7.981024|    0.824240|    0.011998|
|        5309|   -6.096311|   -7.985798|    0.824240|    0.011998|
|        5310|   -6.098403|   -7.990641|    0.824240|    0.011998|
|        5311|   -6.100312|   -7.995547|    0.824241|    0.011998|
|        5312|   -6.102099|   -8.000511|    0.824241|    0.011998|
|        5313|   -6.103826|   -8.005529|    0.824241|    0.011998|
|        5314|   -6.105547|   -8.010599|    0.824241|    0.011998|
|        5315|   -6.107315|   -8.015718|    0.824241|    0.011998|
|        5316|   -6.109177|   -8.020886|    0.824241|    0.011998|
|        5317|   -6.111175|   -8.026104|    0.824241|    0.011998|
|        5318|   -6.113344|   -8.031374|    0.824241|    0.011998|
|        5319|   -6.115715|   -8.036698|    0.824242|    0.011998|
|        5320|   -6.118309|   -8.042079|    0.824242|    0.011998|
|        5321|   -6.121143|   -8.047520|    0.824242|    0.011998|
|        5322|   -6.124227|   -8.053024|    0.824242|    0.011998|
|        5323|   -6.127563|   -8.058593|    0.824242|    0.011998|
|        5324|   -6.131146|   -8.064228|    0.824242|    0.011999|
|        5325|   -6.134967|   -8.069929|    0.824243|    0.011999|
|        5326|   -6.139008|   -8.075697|    0.824243|    0.011999|
|        5327|   -6.143246|   -8.081530|    0.824243|    0.011999|
|        5328|   -6.147651|   -8.087426|    0.824243|    0.011999|
|        5329|   -6.152189|   -8.093377|    0.824243|    0.011999|
|        5330|   -6.156824|   -8.099378|    0.824243|    0.011999|
|        5331|   -6.161512|   -8.105422|    0.824244|    0.011999|
|        5332|   -6.166210|   -8.111502|    0.824244|    0.011999|
|        5333|   -6.170873|   -8.117610|    0.824244|    0.011999|
|        5334|   -6.175455|   -8.123740|    0.824244|    0.011999|
|        5335|   -6.179910|   -8.129887|    0.824244|    0.011999|
|        5336|   -6.184199|   -8.136046|    0.824244|    0.012000|
|        5337|   -6.188282|   -8.142213|    0.824245|    0.012000|
|        5338|   -6.192129|   -8.148386|    0.824245|    0.012000|
|        5339|   -6.195713|   -8.154563|    0.824245|    0.012000|
|        5340|   -6.199018|   -8.160745|    0.824245|    0.012000|
|        5341|   -6.202034|   -8.166932|    0.824245|    0.012000|
|        5342|   -6.204762|   -8.173128|    0.824245|    0.012000|
|        5343|   -6.207210|   -8.179335|    0.824246|    0.012000|
|        5344|   -6.209395|   -8.185560|    0.824246|    0.012000|
|        5345|   -6.211343|   -8.191807|    0.824246|    0.012000|
|        5346|   -6.213085|   -8.198082|    0.824246|    0.012000|
|        5347|   -6.214658|   -8.204394|    0.824246|    0.012000|
|        5348|   -6.216103|   -8.210747|    0.824246|    0.012000|
|        5349|   -6.217466|   -8.217148|    0.824246|    0.012000|
|        5350|   -6.218792|   -8.223605|    0.824247|    0.012001|
|        5351|   -6.220127|   -8.230122|    0.824247|    0.012001|
|        5352|   -6.221517|   -8.236705|    0.824247|    0.012001|
|        5353|   -6.223005|   -8.243358|    0.824247|    0.012001|
|        5354|   -6.224631|   -8.250083|    0.824247|    0.012001|
|        5355|   -6.226433|   -8.256884|    0.824247|    0.012001|
|        5356|   -6.228445|   -8.263760|    0.824247|    0.012001|
|        5357|   -6.230696|   -8.270713|    0.824247|    0.012001|
|        5358|   -6.233211|   -8.277740|    0.824247|    0.012001|
|        5359|   -6.236010|   -8.284839|    0.824247|    0.012001|
|        5360|   -6.239108|   -8.292006|    0.824247|    0.012001|
|        5361|   -6.242516|   -8.299235|    0.824247|    0.012001|
|        5362|   -6.246238|   -8.306519|    0.824248|    0.012001|
|        5363|   -6.250276|   -8.313853|    0.824248|    0.012001|
|        5364|   -6.254625|   -8.321226|    0.824248|    0.012001|
|        5365|   -6.259274|   -8.328630|    0.824248|    0.012001|
|        5366|   -6.264209|   -8.336056|    0.824248|    0.012001|
|        5367|   -6.269410|   -8.343494|    0.824248|    0.012001|
|        5368|   -6.274853|   -8.350932|    0.824248|    0.012001|
|        5369|   -6.280508|   -8.358362|    0.824248|    0.012001|
|        5370|   -6.286341|   -8.365771|    0.824248|    0.012001|
|        5371|   -6.292314|   -8.373150|    0.824248|    0.012001|
|        5372|   -6.298386|   -8.380490|    0.824248|    0.012001|
|        5373|   -6.304511|   -8.387781|    0.824248|    0.012001|
|        5374|   -6.310642|   -8.395018|    0.824248|    0.012001|
|        5375|   -6.316730|   -8.402193|    0.824248|    0.012001|
|        5376|   -6.322724|   -8.409302|    0.824248|    0.012001|
|        5377|   -6.328575|   -8.416344|    0.824248|    0.012001|
|        5378|   -6.334235|   -8.423318|    0.824248|    0.012001|
|        5379|   -6.339659|   -8.430225|    0.824248|    0.012000|
|        5380|   -6.344805|   -8.437067|    0.824248|    0.012000|
|        5381|   -6.349638|   -8.443849|    0.824248|    0.012000|
|        5382|   -6.354126|   -8.450577|    0.824248|    0.012000|
|        5383|   -6.358247|   -8.457258|    0.824248|    0.012000|
|        5384|   -6.361985|   -8.463901|    0.824248|    0.012000|
|        5385|   -6.365331|   -8.470513|    0.824248|    0.012000|
|        5386|   -6.368284|   -8.477103|    0.824248|    0.012000|
|        5387|   -6.370851|   -8.483678|    0.824248|    0.012000|
|        5388|   -6.373044|   -8.490243|    0.824248|    0.012000|
|        5389|   -6.374881|   -8.496804|    0.824248|    0.012000|
|        5390|   -6.376383|   -8.503362|    0.824249|    0.012000|
|        5391|   -6.377576|   -8.509918|    0.824249|    0.011999|
|        5392|   -6.378487|   -8.516469|    0.824249|    0.011999|
|        5393|   -6.379144|   -8.523011|    0.824249|    0.011999|
|        5394|   -6.379574|   -8.529536|    0.824249|    0.011999|
|        5395|   -6.379806|   -8.536031|    0.824249|    0.011999|
|        5396|   -6.379864|   -8.542482|    0.824249|    0.011999|
|        5397|   -6.379771|   -8.548872|    0.824249|    0.011999|
|        5398|   -6.379549|   -8.555181|    0.824250|    0.011999|
|        5399|   -6.379216|   -8.561387|    0.824250|    0.011999|
|        5400|   -6.378786|   -8.567466|    0.824250|    0.011999|
|        5401|   -6.378273|   -8.573393|    0.824250|    0.011999|
|        5402|   -6.377687|   -8.579143|    0.824250|    0.011998|
|        5403|   -6.377038|   -8.584694|    0.824250|    0.011998|
|        5404|   -6.376331|   -8.590022|    0.824251|    0.011998|
|        5405|   -6.375571|   -8.595109|    0.824251|    0.011998|
|        5406|   -6.374763|   -8.599939|    0.824251|    0.011998|
|        5407|   -6.373910|   -8.604500|    0.824251|    0.011998|
|        5408|   -6.373015|   -8.608784|    0.824251|    0.011998|
|        5409|   -6.372078|   -8.612787|    0.824252|    0.011998|
|        5410|   -6.371104|   -8.616513|    0.824252|    0.011998|
|        5411|   -6.370093|   -8.619967|    0.824252|    0.011998|
|        5412|   -6.369049|   -8.623159|    0.824252|    0.011997|
|        5413|   -6.367975|   -8.626102|    0.824252|    0.011997|
|        5414|   -6.366874|   -8.628812|    0.824253|    0.011997|
|        5415|   -6.365749|   -8.631307|    0.824253|    0.011997|
|        5416|   -6.364607|   -8.633604|    0.824253|    0.011997|
|        5417|   -6.363451|   -8.635722|    0.824253|    0.011997|
|        5418|   -6.362289|   -8.637680|    0.824253|    0.011997|
|        5419|   -6.361126|   -8.639493|    0.824253|    0.011997|
|        5420|   -6.359969|   -8.641178|    0.824254|    0.011997|
|        5421|   -6.358828|   -8.642746|    0.824254|    0.011997|
|        5422|   -6.357711|   -8.644208|    0.824254|    0.011997|
|        5423|   -6.356627|   -8.645572|    0.824254|    0.011997|
|        5424|   -6.355588|   -8.646845|    0.824254|    0.011997|
|        5425|   -6.354603|   -8.648030|    0.824254|    0.011997|
|        5426|   -6.353685|   -8.649130|    0.824255|    0.011997|
|        5427|   -6.352848|   -8.650144|    0.824255|    0.011997|
|        5428|   -6.352103|   -8.651075|    0.824255|    0.011997|
|        5429|   -6.351466|   -8.651921|    0.824255|    0.011997|
|        5430|   -6.350950|   -8.652683|    0.824255|    0.011997|
|        5431|   -6.350572|   -8.653362|    0.824255|    0.011997|
|        5432|   -6.350345|   -8.653961|    0.824255|    0.011997|
|        5433|   -6.350287|   -8.654483|    0.824255|    0.011997|
|        5434|   -6.350411|   -8.654936|    0.824255|    0.011997|
|        5435|   -6.350734|   -8.655325|    0.824256|    0.011997|
|        5436|   -6.351270|   -8.655662|    0.824256|    0.011997|
|        5437|   -6.352033|   -8.655957|    0.824256|    0.011997|
|        5438|   -6.353036|   -8.656223|    0.824256|    0.011997|
|        5439|   -6.354293|   -8.656475|    0.824256|    0.011997|
|        5440|   -6.355814|   -8.656731|    0.824256|    0.011997|
|        5441|   -6.357607|   -8.657006|    0.824256|    0.011997|
|        5442|   -6.359679|   -8.657315|    0.824256|    0.011997|
|        5443|   -6.362035|   -8.657670|    0.824256|    0.011997|
|        5444|   -6.364679|   -8.658084|    0.824256|    0.011997|
|        5445|   -6.367610|   -8.658571|    0.824256|    0.011997|
|        5446|   -6.370827|   -8.659143|    0.824257|    0.011997|
|        5447|   -6.374322|   -8.659810|    0.824257|    0.011997|
|        5448|   -6.378089|   -8.660584|    0.824257|    0.011997|
|        5449|   -6.382117|   -8.661471|    0.824257|    0.011997|
|        5450|   -6.386388|   -8.662481|    0.824257|    0.011997|
|        5451|   -6.390887|   -8.663619|    0.824257|    0.011997|
|        5452|   -6.395590|   -8.664890|    0.824257|    0.011998|
|        5453|   -6.400472|   -8.666295|    0.824257|    0.011998|
|        5454|   -6.405503|   -8.667837|    0.824257|    0.011998|
|        5455|   -6.410651|   -8.669513|    0.824257|    0.011998|
|        5456|   -6.415881|   -8.671323|    0.824257|    0.011998|
|        5457|   -6.421153|   -8.673261|    0.824257|    0.011998|
|        5458|   -6.426425|   -8.675325|    0.824257|    0.011998|
|        5459|   -6.431656|   -8.677510|    0.824257|    0.011998|
|        5460|   -6.436799|   -8.679810|    0.824257|    0.011998|
|        5461|   -6.441810|   -8.682221|    0.824257|    0.011998|
|        5462|   -6.446643|   -8.684737|    0.824257|    0.011998|
|        5463|   -6.451254|   -8.687353|    0.824257|    0.011999|
|        5464|   -6.455602|   -8.690065|    0.824257|    0.011999|
|        5465|   -6.459649|   -8.692868|    0.824257|    0.011999|
|        5466|   -6.463359|   -8.695759|    0.824257|    0.011999|
|        5467|   -6.466704|   -8.698732|    0.824257|    0.011999|
|        5468|   -6.469662|   -8.701785|    0.824257|    0.011999|
|        5469|   -6.472214|   -8.704914|    0.824257|    0.011999|
|        5470|   -6.474353|   -8.708116|    0.824256|    0.011999|
|        5471|   -6.476076|   -8.711387|    0.824256|    0.011999|
|        5472|   -6.477388|   -8.714725|    0.824256|    0.011999|
|        5473|   -6.478301|   -8.718125|    0.824256|    0.011999|
|        5474|   -6.478833|   -8.721584|    0.824256|    0.011999|
|        5475|   -6.479009|   -8.725098|    0.824256|    0.011999|
|        5476|   -6.478857|   -8.728662|    0.824256|    0.011999|
|        5477|   -6.478410|   -8.732271|    0.824256|    0.012000|
|        5478|   -6.477703|   -8.735919|    0.824256|    0.012000|
|        5479|   -6.476774|   -8.739601|    0.824256|    0.012000|
|        5480|   -6.475661|   -8.743309|    0.824256|    0.012000|
|        5481|   -6.474403|   -8.747036|    0.824256|    0.012000|
|        5482|   -6.473038|   -8.750774|    0.824256|    0.012000|
|        5483|   -6.471603|   -8.754516|    0.824255|    0.012000|
|        5484|   -6.470133|   -8.758253|    0.824255|    0.012000|
|        5485|   -6.468662|   -8.761975|    0.824255|    0.012000|
|        5486|   -6.467220|   -8.765676|    0.824255|    0.012000|
|        5487|   -6.465835|   -8.769346|    0.824255|    0.012000|
|        5488|   -6.464534|   -8.772977|    0.824255|    0.012000|
|        5489|   -6.463339|   -8.776562|    0.824255|    0.012000|
|        5490|   -6.462271|   -8.780094|    0.824255|    0.012000|
|        5491|   -6.461348|   -8.783568|    0.824255|    0.012000|
|        5492|   -6.460584|   -8.786977|    0.824255|    0.012000|
|        5493|   -6.459992|   -8.790320|    0.824255|    0.012000|
|        5494|   -6.459583|   -8.793592|    0.824254|    0.012000|
|        5495|   -6.459366|   -8.796792|    0.824254|    0.012000|
|        5496|   -6.459347|   -8.799920|    0.824254|    0.012000|
|        5497|   -6.459531|   -8.802976|    0.824254|    0.012000|
|        5498|   -6.459922|   -8.805961|    0.824254|    0.012000|
|        5499|   -6.460521|   -8.808877|    0.824254|    0.011985|
+-----------------------------------------------------------------------+
|Fixed CL Mode (Finite Difference)       |Value                         |
+-----------------------------------------------------------------------+
|Delta CL / Delta AoA                    |0.254207                      |
|Delta CD / Delta CL                     |0.0207879                     |
|Delta CMz / Delta CL                    |0.0177917                     |
+-----------------------------------------------------------------------+
Writing Flow Meta-Data file: flow.meta

----------------------------- Solver Exit -------------------------------

Maximum number of iterations reached (ITER = 5500) before convergence.
+-----------------------------------------------------------------------+
|      Convergence Field     |     Value    |   Criterion  |  Converged |
+-----------------------------------------------------------------------+
|                    rms[Rho]|      -6.46052|         < -12|          No|
+-----------------------------------------------------------------------+
-------------------------------------------------------------------------

--------------------------- Finalizing Solver ---------------------------
Deleted CNumerics container.
Deleted CIntegration container.
Deleted CSolver container.
Deleted CIteration container.
Deleted CInterface container.
Deleted CGeometry container.
Deleted CFreeFormDefBox class.
Deleted CSurfaceMovement class.
Deleted CVolumetricMovement class.
Deleted CConfig container.
Deleted nInst container.
Deleted COutput class.
-------------------------------------------------------------------------

------------------------- Exit Success (SU2_CFD) ------------------------


-------------------------------------------------------------------------
|    ___ _   _ ___                                                      |
|   / __| | | |_  )   Release 8.0.0 "Harrier"                           |
|   \__ \ |_| |/ /                                                      |
|   |___/\___//___|   Suite (Solution Exporting Code)                   |
|                                                                       |
-------------------------------------------------------------------------
| SU2 Project Website: https://su2code.github.io                        |
|                                                                       |
| The SU2 Project is maintained by the SU2 Foundation                   |
| (http://su2foundation.org)                                            |
-------------------------------------------------------------------------
| Copyright 2012-2023, SU2 Contributors                                 |
|                                                                       |
| SU2 is free software; you can redistribute it and/or                  |
| modify it under the terms of the GNU Lesser General Public            |
| License as published by the Free Software Foundation; either          |
| version 2.1 of the License, or (at your option) any later version.    |
|                                                                       |
| SU2 is distributed in the hope that it will be useful,                |
| but WITHOUT ANY WARRANTY; without even the implied warranty of        |
| MERCHANTABILITY or FITNESS FOR A PARTICULAR PURPOSE. See the GNU      |
| Lesser General Public License for more details.                       |
|                                                                       |
| You should have received a copy of the GNU Lesser General Public      |
| License along with SU2. If not, see <http://www.gnu.org/licenses/>.   |
-------------------------------------------------------------------------

----------------- Physical Case Definition ( Zone 0 ) -------------------
Input mesh file name: mesh_RAE2822_turb_deform.su2

-------------------- Output Information ( Zone 0 ) ----------------------
The tabular file format is CSV (.csv).
Flow variables file name: flow.

------------- Config File Boundary Information ( Zone 0 ) ---------------
+-----------------------------------------------------------------------+
|                        Marker Type|                        Marker Name|
+-----------------------------------------------------------------------+
|                          Far-field|                           FARFIELD|
+-----------------------------------------------------------------------+
|                     Heat flux wall|                            AIRFOIL|
+-----------------------------------------------------------------------+
Two dimensional problem.
13937 grid points before partitioning.
22842 volume elements before partitioning.
2 surface markers.
192 boundary elements in index 0 (Marker = AIRFOIL).
40 boundary elements in index 1 (Marker = FARFIELD).
Executing the partitioning functions.
Building the graph adjacency structure.
Calling ParMETIS... graph partitioning complete (831 edge cuts).
Distributing ParMETIS coloring.
Rebalancing vertices.
Rebalancing volume element connectivity.
Rebalancing markers and surface elements.
14875 vertices including ghost points. 
23674 interior elements including halo cells. 
18780 triangles.
4894 quadrilaterals.
Establishing MPI communication patterns.
Identify vertices.
Storing a mapping from global to local point index.

------------------------- Solution Postprocessing -----------------------
Reading and storing the solution from restart_flow.
Volume output fields: COORDINATES, SOLUTION
  Info: Ignoring the following screen output fields:
  RMS_DENSITY, RMS_NU_TILDE, LIFT, DRAG
Screen output fields: INNER_ITER
  Info: Ignoring the following history output groups:
  RMS_RES, AERO_COEFF
History output group(s): ITER
Warning: No (valid) fields chosen for convergence monitoring. Convergence monitoring inactive.
Warning: No (valid) fields chosen for time convergence monitoring. Time convergence monitoring inactive.
|Paraview                           |flow.vtu                           |
|Paraview surface                   |surface_flow.vtu                   |
|CSV file                           |surface_flow.csv                   |

------------------------- Finalize Solver -------------------------
Deleted CGeometry container.
Deleted CSolver class.
Deleted CConfig container.
Deleted COutput class.

Completed in 0.019067 seconds on 6 cores.

------------------------- Exit Success (SU2_SOL) ------------------------

