
-------------------------------------------------------------------------
|    ___ _   _ ___                                                      |
|   / __| | | |_  )   Release 8.0.0 "Harrier"                           |
|   \__ \ |_| |/ /                                                      |
|   |___/\___//___|   Suite (Computational Fluid Dynamics Code)         |
|                                                                       |
-------------------------------------------------------------------------
| SU2 Project Website: https://su2code.github.io                        |
|                                                                       |
| The SU2 Project is maintained by the SU2 Foundation                   |
| (http://su2foundation.org)                                            |
-------------------------------------------------------------------------
| Copyright 2012-2023, SU2 Contributors                                 |
|                                                                       |
| SU2 is free software; you can redistribute it and/or                  |
| modify it under the terms of the GNU Lesser General Public            |
| License as published by the Free Software Foundation; either          |
| version 2.1 of the License, or (at your option) any later version.    |
|                                                                       |
| SU2 is distributed in the hope that it will be useful,                |
| but WITHOUT ANY WARRANTY; without even the implied warranty of        |
| MERCHANTABILITY or FITNESS FOR A PARTICULAR PURPOSE. See the GNU      |
| Lesser General Public License for more details.                       |
|                                                                       |
| You should have received a copy of the GNU Lesser General Public      |
| License along with SU2. If not, see <http://www.gnu.org/licenses/>.   |
-------------------------------------------------------------------------

Parsing config file for zone 0

----------------- Physical Case Definition ( Zone 0 ) -------------------
Compressible RANS equations.
Turbulence model: Spalart-Allmaras-noft2
Hybrid RANS/LES: No Hybrid RANS/LES
Mach number: 0.734.
Angle of attack (AoA): 2.31 deg, and angle of sideslip (AoS): 0 deg.
Reynolds number: 6.5e+06. Reference length 1.
Fixed CL mode, target value: 0.824.
Reading and writing binary SU2 native restart files.
Read flow solution from: solution_flow.dat.
Dimensional simulation.
The reference area is 1 m^2.
The semi-span will be computed using the max y(3D) value.
The reference length is 1 m.
Reference origin for moment evaluation is (0.25, 0, 0).
Surface(s) where the force coefficients are evaluated: AIRFOIL.

Surface(s) plotted in the output file: AIRFOIL.
Surface(s) affected by the design variables: AIRFOIL.
Input mesh file name: mesh_RAE2822_turb_deform.su2

--------------- Space Numerical Integration ( Zone 0 ) ------------------
Jameson-Schmidt-Turkel scheme (2nd order in space) for the flow inviscid terms.
JST viscous coefficients (2nd & 4th): 0.5, 0.02.
The method includes a grid stretching correction (p = 0.3).
Scalar upwind solver for the turbulence model.
First order integration in space.
Average of gradients with correction (viscous flow terms).
Average of gradients with correction (viscous turbulence terms).
Gradient for viscous and source terms: inverse-distance weighted Least-Squares.

--------------- Time Numerical Integration  ( Zone 0 ) ------------------
Local time stepping (steady state simulation).
Euler implicit method for the flow equations.
FGMRES is used for solving the linear system.
Using a ILU(0) preconditioning.
Convergence criteria of the linear solver: 1e-06.
Max number of linear iterations: 10.
No CFL adaptation.
Courant-Friedrichs-Lewy number:       10
Euler implicit time integration for the turbulence model.

------------------ Convergence Criteria  ( Zone 0 ) ---------------------
Maximum number of solver subiterations: 5500.
Begin convergence monitoring at iteration 10.
Residual minimum value: 1e-12.
Cauchy series min. value: 1e-06.
Number of Cauchy elements: 100.
Begin windowed time average at iteration 0.

-------------------- Output Information ( Zone 0 ) ----------------------
File writing frequency: 
+------------------------------------+
|                     File| Frequency|
+------------------------------------+
|                  RESTART|     10000|
|                 PARAVIEW|     10000|
|         SURFACE_PARAVIEW|     10000|
|              SURFACE_CSV|     10000|
+------------------------------------+
Writing the convergence history file every 1 inner iterations.
Writing the screen convergence history every 1 inner iterations.
The tabular file format is CSV (.csv).
Convergence history file name: history_direct.
Forces breakdown file name: forces_breakdown.dat.
Surface file name: surface_flow.
Volume file name: flow.
Restart file name: restart_flow.dat.

------------- Config File Boundary Information ( Zone 0 ) ---------------
+-----------------------------------------------------------------------+
|                        Marker Type|                        Marker Name|
+-----------------------------------------------------------------------+
|                          Far-field|                           FARFIELD|
+-----------------------------------------------------------------------+
|                     Heat flux wall|                            AIRFOIL|
+-----------------------------------------------------------------------+

-------------------- Output Preprocessing ( Zone 0 ) --------------------

WARNING: SURFACE_PRESSURE_DROP can only be computed for at least 2 surfaces (outlet, inlet, ...)

Screen output fields: INNER_ITER, RMS_DENSITY, RMS_NU_TILDE, LIFT, DRAG
History output group(s): ITER, RMS_RES, AERO_COEFF
Convergence field(s): RMS_DENSITY
Warning: No (valid) fields chosen for time convergence monitoring. Time convergence monitoring inactive.
Volume output fields: COORDINATES, SOLUTION, PRIMITIVE

------------------- Geometry Preprocessing ( Zone 0 ) -------------------
Two dimensional problem.
13937 grid points before partitioning.
22842 volume elements before partitioning.
2 surface markers.
192 boundary elements in index 0 (Marker = AIRFOIL).
40 boundary elements in index 1 (Marker = FARFIELD).
Executing the partitioning functions.
Building the graph adjacency structure.
Calling ParMETIS... graph partitioning complete (831 edge cuts).
Distributing ParMETIS coloring.
Rebalancing vertices.
Rebalancing volume element connectivity.
Rebalancing markers and surface elements.
14875 vertices including ghost points. 
23674 interior elements including halo cells. 
18780 triangles.
4894 quadrilaterals.
Establishing MPI communication patterns.
Setting point connectivity.
Renumbering points (Reverse Cuthill McKee Ordering).
Recomputing point connectivity.
Setting element connectivity.
Checking the numerical grid orientation.
All volume elements are correctly orientend.
All surface elements are correctly orientend.
Identifying edges and vertices.
Setting the control volume structure.
Area of the computational grid: 32209.9.
Searching for the closest normal neighbors to the surfaces.
Storing a mapping from global to local point index.
Compute the surface curvature.
Max K: 206.721. Mean K: 8.35002. Standard deviation K: 27.1495.
Checking for periodicity.
Computing mesh quality statistics for the dual control volumes.
+--------------------------------------------------------------+
|           Mesh Quality Metric|        Minimum|        Maximum|
+--------------------------------------------------------------+
|    Orthogonality Angle (deg.)|         74.468|        89.9999|
|     CV Face Area Aspect Ratio|        1.00103|        3359.02|
|           CV Sub-Volume Ratio|        1.00066|        1219.68|
+--------------------------------------------------------------+
Finding max control volume width.
Communicating number of neighbors.
Wetted area = 2.02135 m.
Area projection in the x-plane = 0.12796 m, y-plane = 0.995873 m.
Max. coordinate in the x-direction = 1 m, y-direction = 0.0615451 m.
Min. coordinate in the x-direction = 0 m, y-direction = -0.062589 m.
Computing wall distances.

-------------------- Solver Preprocessing ( Zone 0 ) --------------------
WARNING: AoA in the solution file (2.76618 deg.) +
         AoA offset in mesh file (0 deg.) = 2.76618 deg.
WARNING: SU2 will use the dCD/dCL provided in the direct solution file: 0.0196942.
WARNING: SU2 will use the dCMz/dCL provided in the direct solution file: 0.00874332.
Viscous flow: Computing pressure using the ideal gas law
based on the free-stream temperature and a density computed
from the Reynolds number.
Force coefficients computed using free-stream values.

-- Models:
+------------------------------------------------------------------------------+
|          Viscosity Model|        Conductivity Model|              Fluid Model|
+------------------------------------------------------------------------------+
|               SUTHERLAND|          CONSTANT_PRANDTL|             STANDARD_AIR|
+------------------------------------------------------------------------------+
-- Fluid properties:
+------------------------------------------------------------------------------+
|                  Name|    Dim. value|    Ref. value|      Unit|Non-dim. value|
+------------------------------------------------------------------------------+
|        Ref. Viscosity|     1.716e-05|             1|   N.s/m^2|     1.716e-05|
|      Sutherland Temp.|        273.15|             1|         K|        273.15|
|     Sutherland Const.|         110.4|             1|         K|         110.4|
+------------------------------------------------------------------------------+
|        Prandtl (Lam.)|             -|             -|         -|          0.71|
|       Prandtl (Turb.)|             -|             -|         -|           0.9|
+------------------------------------------------------------------------------+
|          Gas Constant|       287.058|             1|  N.m/kg.K|       287.058|
|      Spec. Heat Ratio|             -|             -|         -|           1.4|
+------------------------------------------------------------------------------+
-- Initial and free-stream conditions:
+------------------------------------------------------------------------------+
|                  Name|    Dim. value|    Ref. value|      Unit|Non-dim. value|
+------------------------------------------------------------------------------+
|       Static Pressure|         38515|             1|        Pa|         38515|
|               Density|      0.465631|             1|    kg/m^3|      0.465631|
|           Temperature|        288.15|             1|         K|        288.15|
|          Total Energy|        237984|             1|   m^2/s^2|        237984|
|            Velocity-X|       249.487|             1|       m/s|       249.487|
|            Velocity-Y|       12.0544|             1|       m/s|       12.0544|
|    Velocity Magnitude|       249.778|             1|       m/s|       249.778|
+------------------------------------------------------------------------------+
|             Viscosity|    1.7893e-05|             1|   N.s/m^2|    1.7893e-05|
|          Conductivity|             -|             1|   W/m^2.K|             -|
|     Turb. Kin. Energy|       233.959|             1|   m^2/s^2|       233.959|
|     Spec. Dissipation|        608834|             1|       1/s|        608834|
+------------------------------------------------------------------------------+
|           Mach Number|             -|             -|         -|         0.734|
|       Reynolds Number|             -|             -|         -|       6.5e+06|
+------------------------------------------------------------------------------+
Initialize Jacobian structure (Navier-Stokes). MG level: 0.
Initialize Jacobian structure (SA model).

------------------- Numerics Preprocessing ( Zone 0 ) -------------------

----------------- Integration Preprocessing ( Zone 0 ) ------------------

------------------- Iteration Preprocessing ( Zone 0 ) ------------------
Euler/Navier-Stokes/RANS fluid iteration.

------------------------------ Begin Solver -----------------------------

Simulation Run using the Single-zone Driver
WARNING: SU2 was not compiled for an AVX-capable architecture. Performance could be better,
         see https://su2code.github.io/docs_v7/Build-SU2-Linux-MacOS/#compiler-optimizations
+----------------------------------------------------------------+
|  Inner_Iter|    rms[Rho]|     rms[nu]|          CL|          CD|
+----------------------------------------------------------------+
|           0|   -4.721867|   -6.101242|    0.824128|    0.011837|
|           1|   -4.774865|   -6.200537|    0.824191|    0.011841|
|           2|   -4.831475|   -6.325171|    0.824208|    0.011846|
|           3|   -4.878245|   -6.469477|    0.824198|    0.011851|
|           4|   -4.914446|   -6.612667|    0.824176|    0.011853|
|           5|   -4.938755|   -6.712959|    0.824156|    0.011853|
|           6|   -4.951489|   -6.744559|    0.824142|    0.011853|
|           7|   -4.955259|   -6.731423|    0.824138|    0.011853|
|           8|   -4.952794|   -6.703523|    0.824141|    0.011854|
|           9|   -4.945829|   -6.673912|    0.824151|    0.011858|
|          10|   -4.935522|   -6.647936|    0.824165|    0.011865|
|          11|   -4.923073|   -6.628990|    0.824182|    0.011873|
|          12|   -4.909810|   -6.619365|    0.824200|    0.011884|
|          13|   -4.896924|   -6.619784|    0.824217|    0.011896|
|          14|   -4.885240|   -6.628837|    0.824233|    0.011910|
|          15|   -4.875203|   -6.642485|    0.824246|    0.011924|
|          16|   -4.866986|   -6.654224|    0.824254|    0.011939|
|          17|   -4.860601|   -6.657178|    0.824258|    0.011954|
|          18|   -4.855952|   -6.648131|    0.824257|    0.011968|
|          19|   -4.852838|   -6.629783|    0.824251|    0.011982|
|          20|   -4.850958|   -6.608358|    0.824241|    0.011995|
|          21|   -4.849949|   -6.589666|    0.824228|    0.012007|
|          22|   -4.849469|   -6.577205|    0.824212|    0.012017|
|          23|   -4.849271|   -6.572202|    0.824194|    0.012026|
|          24|   -4.849246|   -6.574178|    0.824176|    0.012034|
|          25|   -4.849396|   -6.581462|    0.824159|    0.012040|
|          26|   -4.849778|   -6.591634|    0.824143|    0.012046|
|          27|   -4.850434|   -6.602035|    0.824128|    0.012050|
|          28|   -4.851354|   -6.610425|    0.824116|    0.012053|
|          29|   -4.852468|   -6.615631|    0.824105|    0.012056|
|          30|   -4.853663|   -6.617818|    0.824096|    0.012058|
|          31|   -4.854806|   -6.618209|    0.824088|    0.012060|
|          32|   -4.855769|   -6.618462|    0.824082|    0.012061|
|          33|   -4.856433|   -6.620095|    0.824076|    0.012062|
|          34|   -4.856690|   -6.624169|    0.824071|    0.012062|
|          35|   -4.856453|   -6.631192|    0.824065|    0.012063|
|          36|   -4.855655|   -6.641163|    0.824059|    0.012063|
|          37|   -4.854260|   -6.653644|    0.824051|    0.012063|
|          38|   -4.852272|   -6.667853|    0.824042|    0.012063|
|          39|   -4.849733|   -6.682762|    0.824031|    0.012064|
|          40|   -4.846722|   -6.697240|    0.824018|    0.012064|
|          41|   -4.843343|   -6.710221|    0.824004|    0.012064|
|          42|   -4.839708|   -6.720893|    0.823988|    0.012064|
|          43|   -4.835926|   -6.728843|    0.823971|    0.012063|
|          44|   -4.832085|   -6.734101|    0.823952|    0.012063|
|          45|   -4.828245|   -6.737071|    0.823932|    0.012063|
|          46|   -4.824431|   -6.738375|    0.823912|    0.012062|
|          47|   -4.820632|   -6.738681|    0.823891|    0.012061|
|          48|   -4.816807|   -6.738574|    0.823870|    0.012060|
|          49|   -4.812895|   -6.738485|    0.823849|    0.012059|
|          50|   -4.808825|   -6.738675|    0.823829|    0.012057|
|          51|   -4.804539|   -6.739252|    0.823810|    0.012055|
|          52|   -4.799997|   -6.740217|    0.823793|    0.012053|
|          53|   -4.795192|   -6.741510|    0.823777|    0.012050|
|          54|   -4.790153|   -6.743054|    0.823763|    0.012048|
|          55|   -4.784938|   -6.744801|    0.823751|    0.012045|
|          56|   -4.779632|   -6.746745|    0.823741|    0.012042|
|          57|   -4.774326|   -6.748937|    0.823733|    0.012039|
|          58|   -4.769116|   -6.751465|    0.823727|    0.012035|
|          59|   -4.764084|   -6.754427|    0.823723|    0.012032|
|          60|   -4.759294|   -6.757901|    0.823721|    0.012028|
|          61|   -4.754786|   -6.761916|    0.823720|    0.012024|
|          62|   -4.750581|   -6.766421|    0.823720|    0.012020|
|          63|   -4.746677|   -6.771284|    0.823722|    0.012017|
|          64|   -4.743060|   -6.776302|    0.823725|    0.012013|
|          65|   -4.739706|   -6.781229|    0.823728|    0.012009|
|          66|   -4.736589|   -6.785822|    0.823732|    0.012005|
|          67|   -4.733683|   -6.789885|    0.823736|    0.012001|
|          68|   -4.730972|   -6.793310|    0.823740|    0.011997|
|          69|   -4.728444|   -6.796092|    0.823745|    0.011993|
|          70|   -4.726097|   -6.798332|    0.823750|    0.011989|
|          71|   -4.723935|   -6.800200|    0.823754|    0.011986|
|          72|   -4.721967|   -6.801895|    0.823759|    0.011982|
|          73|   -4.720202|   -6.803605|    0.823763|    0.011978|
|          74|   -4.718652|   -6.805476|    0.823767|    0.011975|
|          75|   -4.717325|   -6.807588|    0.823772|    0.011971|
|          76|   -4.716226|   -6.809959|    0.823776|    0.011968|
|          77|   -4.715355|   -6.812548|    0.823779|    0.011965|
|          78|   -4.714710|   -6.815278|    0.823783|    0.011962|
|          79|   -4.714284|   -6.818061|    0.823787|    0.011959|
|          80|   -4.714066|   -6.820811|    0.823790|    0.011956|
|          81|   -4.714044|   -6.823470|    0.823793|    0.011954|
|          82|   -4.714199|   -6.826008|    0.823796|    0.011951|
|          83|   -4.714514|   -6.828430|    0.823799|    0.011949|
|          84|   -4.714966|   -6.830765|    0.823802|    0.011946|
|          85|   -4.715531|   -6.833057|    0.823804|    0.011944|
|          86|   -4.716183|   -6.835351|    0.823806|    0.011942|
|          87|   -4.716896|   -6.837685|    0.823808|    0.011940|
|          88|   -4.717643|   -6.840086|    0.823810|    0.011938|
|          89|   -4.718402|   -6.842562|    0.823812|    0.011936|
|          90|   -4.719155|   -6.845104|    0.823814|    0.011934|
|          91|   -4.719889|   -6.847695|    0.823815|    0.011932|
|          92|   -4.720600|   -6.850310|    0.823817|    0.011931|
|          93|   -4.721295|   -6.852922|    0.823818|    0.011929|
|          94|   -4.721989|   -6.855513|    0.823820|    0.011928|
|          95|   -4.722706|   -6.858073|    0.823822|    0.011926|
|          96|   -4.723477|   -6.860600|    0.823824|    0.011925|
|          97|   -4.724340|   -6.863102|    0.823826|    0.011924|
|          98|   -4.725335|   -6.865595|    0.823829|    0.011923|
|          99|   -4.726499|   -6.868103|    0.823832|    0.011922|
|         100|   -4.727871|   -6.870650|    0.823836|    0.011922|
|         101|   -4.729478|   -6.873266|    0.823840|    0.011933|
+-----------------------------------------------------------------------+
|Fixed CL Mode                           |Value                         |
+-----------------------------------------------------------------------+
|Current CL                              |0.82384                       |
|Target CL                               |0.824                         |
|Previous AOA                            |2.76618                       |
|Changed AoA by                          |0.000821012                   |
+-----------------------------------------------------------------------+
+----------------------------------------------------------------+
|  Inner_Iter|    rms[Rho]|     rms[nu]|          CL|          CD|
+----------------------------------------------------------------+
|         102|   -3.278941|   -6.856362|    0.823844|    0.011933|
|         103|   -3.664771|   -6.869140|    0.823849|    0.011933|
|         104|   -3.913588|   -6.874876|    0.823854|    0.011933|
|         105|   -3.994397|   -6.879357|    0.823860|    0.011934|
|         106|   -4.046868|   -6.883524|    0.823866|    0.011934|
|         107|   -4.113371|   -6.887600|    0.823872|    0.011935|
|         108|   -4.193513|   -6.891638|    0.823878|    0.011936|
|         109|   -4.273044|   -6.895658|    0.823885|    0.011938|
|         110|   -4.335835|   -6.899659|    0.823891|    0.011939|
|         111|   -4.376838|   -6.903627|    0.823898|    0.011941|
|         112|   -4.401121|   -6.907553|    0.823905|    0.011942|
|         113|   -4.414325|   -6.911442|    0.823911|    0.011944|
|         114|   -4.420423|   -6.915312|    0.823917|    0.011946|
|         115|   -4.423676|   -6.919168|    0.823923|    0.011948|
|         116|   -4.428415|   -6.922998|    0.823929|    0.011951|
|         117|   -4.437391|   -6.926777|    0.823934|    0.011953|
|         118|   -4.450943|   -6.930476|    0.823939|    0.011955|
|         119|   -4.467399|   -6.934079|    0.823943|    0.011958|
|         120|   -4.484267|   -6.937572|    0.823947|    0.011960|
|         121|   -4.499629|   -6.940945|    0.823951|    0.011962|
|         122|   -4.512977|   -6.944191|    0.823954|    0.011965|
|         123|   -4.524993|   -6.947299|    0.823956|    0.011967|
|         124|   -4.536651|   -6.950265|    0.823959|    0.011969|
|         125|   -4.548466|   -6.953096|    0.823961|    0.011972|
|         126|   -4.560282|   -6.955804|    0.823962|    0.011974|
|         127|   -4.571494|   -6.958412|    0.823964|    0.011976|
|         128|   -4.581376|   -6.960945|    0.823965|    0.011979|
|         129|   -4.589342|   -6.963433|    0.823966|    0.011981|
|         130|   -4.595067|   -6.965899|    0.823967|    0.011983|
|         131|   -4.598545|   -6.968368|    0.823968|    0.011986|
|         132|   -4.600086|   -6.970865|    0.823969|    0.011988|
|         133|   -4.600254|   -6.973408|    0.823970|    0.011990|
|         134|   -4.599733|   -6.976007|    0.823971|    0.011992|
|         135|   -4.599171|   -6.978669|    0.823973|    0.011995|
|         136|   -4.599049|   -6.981392|    0.823974|    0.011997|
|         137|   -4.599612|   -6.984162|    0.823975|    0.011999|
|         138|   -4.600871|   -6.986964|    0.823977|    0.012001|
|         139|   -4.602638|   -6.989777|    0.823979|    0.012004|
|         140|   -4.604592|   -6.992579|    0.823981|    0.012006|
|         141|   -4.606363|   -6.995347|    0.823983|    0.012009|
|         142|   -4.607620|   -6.998059|    0.823985|    0.012011|
|         143|   -4.608152|   -7.000692|    0.823987|    0.012013|
|         144|   -4.607915|   -7.003226|    0.823990|    0.012016|
|         145|   -4.607036|   -7.005647|    0.823993|    0.012018|
|         146|   -4.605763|   -7.007941|    0.823996|    0.012020|
|         147|   -4.604388|   -7.010102|    0.823998|    0.012023|
|         148|   -4.603176|   -7.012121|    0.824001|    0.012025|
|         149|   -4.602312|   -7.014011|    0.824004|    0.012028|
|         150|   -4.601874|   -7.015788|    0.824007|    0.012030|
|         151|   -4.601845|   -7.017476|    0.824011|    0.012032|
|         152|   -4.602138|   -7.019106|    0.824014|    0.012034|
|         153|   -4.602627|   -7.020716|    0.824017|    0.012036|
|         154|   -4.603186|   -7.022349|    0.824020|    0.012038|
|         155|   -4.603713|   -7.024055|    0.824023|    0.012040|
|         156|   -4.604148|   -7.025881|    0.824027|    0.012042|
|         157|   -4.604475|   -7.027878|    0.824030|    0.012044|
|         158|   -4.604712|   -7.030092|    0.824033|    0.012046|
|         159|   -4.604902|   -7.032561|    0.824037|    0.012048|
|         160|   -4.605097|   -7.035317|    0.824040|    0.012049|
|         161|   -4.605343|   -7.038390|    0.824043|    0.012050|
|         162|   -4.605678|   -7.041805|    0.824047|    0.012052|
|         163|   -4.606121|   -7.045579|    0.824050|    0.012053|
|         164|   -4.606684|   -7.049724|    0.824054|    0.012054|
|         165|   -4.607365|   -7.054246|    0.824057|    0.012055|
|         166|   -4.608158|   -7.059145|    0.824060|    0.012056|
|         167|   -4.609053|   -7.064411|    0.824064|    0.012057|
|         168|   -4.610040|   -7.070030|    0.824067|    0.012057|
|         169|   -4.611111|   -7.075981|    0.824071|    0.012058|
|         170|   -4.612256|   -7.082242|    0.824074|    0.012058|
|         171|   -4.613466|   -7.088784|    0.824077|    0.012059|
|         172|   -4.614730|   -7.095576|    0.824081|    0.012059|
|         173|   -4.616033|   -7.102584|    0.824084|    0.012059|
|         174|   -4.617361|   -7.109773|    0.824087|    0.012059|
|         175|   -4.618694|   -7.117102|    0.824089|    0.012059|
|         176|   -4.620012|   -7.124527|    0.824092|    0.012059|
|         177|   -4.621293|   -7.132003|    0.824095|    0.012058|
|         178|   -4.622516|   -7.139479|    0.824097|    0.012058|
|         179|   -4.623663|   -7.146903|    0.824099|    0.012057|
|         180|   -4.624717|   -7.154210|    0.824101|    0.012057|
|         181|   -4.625666|   -7.161344|    0.824102|    0.012056|
|         182|   -4.626505|   -7.168257|    0.824103|    0.012055|
|         183|   -4.627237|   -7.174897|    0.824104|    0.012054|
|         184|   -4.627871|   -7.181215|    0.824105|    0.012053|
|         185|   -4.628427|   -7.187168|    0.824105|    0.012052|
|         186|   -4.628931|   -7.192719|    0.824105|    0.012051|
|         187|   -4.629421|   -7.197841|    0.824105|    0.012049|
|         188|   -4.629939|   -7.202517|    0.824105|    0.012048|
|         189|   -4.630535|   -7.206737|    0.824104|    0.012047|
|         190|   -4.631265|   -7.210508|    0.824103|    0.012045|
|         191|   -4.632187|   -7.213846|    0.824102|    0.012043|
|         192|   -4.633359|   -7.216778|    0.824100|    0.012042|
|         193|   -4.634841|   -7.219339|    0.824098|    0.012040|
|         194|   -4.636689|   -7.221575|    0.824096|    0.012038|
|         195|   -4.638955|   -7.223533|    0.824094|    0.012036|
|         196|   -4.641685|   -7.225268|    0.824092|    0.012035|
|         197|   -4.644919|   -7.226836|    0.824089|    0.012033|
|         198|   -4.648687|   -7.228290|    0.824087|    0.012031|
|         199|   -4.653012|   -7.229683|    0.824084|    0.012029|
|         200|   -4.657903|   -7.231064|    0.824081|    0.012027|
|         201|   -4.663358|   -7.232477|    0.824078|    0.012019|
+-----------------------------------------------------------------------+
|Fixed CL Mode                           |Value                         |
+-----------------------------------------------------------------------+
|Current CL                              |0.824078                      |
|Target CL                               |0.824                         |
|Previous AOA                            |2.76701                       |
|Changed AoA by                          |-0.000405868                  |
+-----------------------------------------------------------------------+
+----------------------------------------------------------------+
|  Inner_Iter|    rms[Rho]|     rms[nu]|          CL|          CD|
+----------------------------------------------------------------+
|         202|   -3.583723|   -7.207407|    0.824076|    0.012017|
|         203|   -3.962958|   -7.221520|    0.824073|    0.012015|
|         204|   -4.192670|   -7.226883|    0.824070|    0.012013|
|         205|   -4.260945|   -7.230647|    0.824067|    0.012010|
|         206|   -4.306116|   -7.233959|    0.824065|    0.012008|
|         207|   -4.364133|   -7.237101|    0.824062|    0.012006|
|         208|   -4.432741|   -7.240174|    0.824060|    0.012004|
|         209|   -4.499240|   -7.243225|    0.824057|    0.012002|
|         210|   -4.551648|   -7.246253|    0.824055|    0.012000|
|         211|   -4.587203|   -7.249213|    0.824053|    0.011998|
|         212|   -4.609800|   -7.252040|    0.824052|    0.011996|
|         213|   -4.623429|   -7.254690|    0.824050|    0.011995|
|         214|   -4.630955|   -7.257138|    0.824049|    0.011993|
|         215|   -4.635445|   -7.259362|    0.824048|    0.011991|
|         216|   -4.640017|   -7.261329|    0.824047|    0.011990|
|         217|   -4.646670|   -7.263006|    0.824046|    0.011988|
|         218|   -4.655664|   -7.264371|    0.824046|    0.011987|
|         219|   -4.665851|   -7.265415|    0.824046|    0.011985|
|         220|   -4.675612|   -7.266146|    0.824046|    0.011984|
|         221|   -4.683816|   -7.266573|    0.824047|    0.011983|
|         222|   -4.690280|   -7.266714|    0.824047|    0.011982|
|         223|   -4.695528|   -7.266579|    0.824048|    0.011981|
|         224|   -4.700235|   -7.266190|    0.824050|    0.011980|
|         225|   -4.704822|   -7.265580|    0.824051|    0.011979|
|         226|   -4.709385|   -7.264791|    0.824053|    0.011978|
|         227|   -4.713826|   -7.263872|    0.824055|    0.011978|
|         228|   -4.718017|   -7.262878|    0.824058|    0.011977|
|         229|   -4.721888|   -7.261865|    0.824060|    0.011977|
|         230|   -4.725443|   -7.260883|    0.824063|    0.011976|
|         231|   -4.728758|   -7.259983|    0.824066|    0.011976|
|         232|   -4.731984|   -7.259213|    0.824070|    0.011976|
|         233|   -4.735334|   -7.258619|    0.824073|    0.011976|
|         234|   -4.739062|   -7.258234|    0.824077|    0.011976|
|         235|   -4.743419|   -7.258082|    0.824081|    0.011976|
|         236|   -4.748606|   -7.258174|    0.824085|    0.011977|
|         237|   -4.754740|   -7.258512|    0.824089|    0.011977|
|         238|   -4.761842|   -7.259092|    0.824093|    0.011978|
|         239|   -4.769835|   -7.259896|    0.824097|    0.011978|
|         240|   -4.778560|   -7.260899|    0.824102|    0.011979|
|         241|   -4.787805|   -7.262067|    0.824106|    0.011979|
|         242|   -4.797339|   -7.263359|    0.824110|    0.011980|
|         243|   -4.806956|   -7.264728|    0.824115|    0.011981|
|         244|   -4.816511|   -7.266122|    0.824119|    0.011982|
|         245|   -4.825949|   -7.267489|    0.824123|    0.011983|
|         246|   -4.835295|   -7.268774|    0.824127|    0.011984|
|         247|   -4.844634|   -7.269928|    0.824131|    0.011985|
|         248|   -4.854069|   -7.270905|    0.824135|    0.011986|
|         249|   -4.863683|   -7.271668|    0.824139|    0.011987|
|         250|   -4.873507|   -7.272190|    0.824142|    0.011988|
|         251|   -4.883507|   -7.272458|    0.824145|    0.011989|
|         252|   -4.893590|   -7.272472|    0.824148|    0.011990|
|         253|   -4.903622|   -7.272246|    0.824150|    0.011992|
|         254|   -4.913448|   -7.271810|    0.824152|    0.011993|
|         255|   -4.922925|   -7.271204|    0.824154|    0.011994|
|         256|   -4.931939|   -7.270481|    0.824156|    0.011995|
|         257|   -4.940417|   -7.269698|    0.824157|    0.011996|
|         258|   -4.948327|   -7.268923|    0.824158|    0.011997|
|         259|   -4.955671|   -7.268222|    0.824158|    0.011999|
|         260|   -4.962472|   -7.267664|    0.824158|    0.012000|
|         261|   -4.968758|   -7.267314|    0.824157|    0.012001|
|         262|   -4.974555|   -7.267235|    0.824157|    0.012002|
|         263|   -4.979879|   -7.267482|    0.824156|    0.012003|
|         264|   -4.984735|   -7.268100|    0.824154|    0.012004|
|         265|   -4.989123|   -7.269125|    0.824152|    0.012005|
|         266|   -4.993037|   -7.270582|    0.824150|    0.012006|
|         267|   -4.996476|   -7.272481|    0.824148|    0.012007|
|         268|   -4.999443|   -7.274821|    0.824145|    0.012008|
|         269|   -5.001945|   -7.277583|    0.824142|    0.012008|
|         270|   -5.004001|   -7.280736|    0.824139|    0.012009|
|         271|   -5.005630|   -7.284231|    0.824136|    0.012010|
|         272|   -5.006857|   -7.288008|    0.824132|    0.012011|
|         273|   -5.007709|   -7.291988|    0.824129|    0.012011|
|         274|   -5.008216|   -7.296084|    0.824125|    0.012012|
|         275|   -5.008408|   -7.300199|    0.824122|    0.012013|
|         276|   -5.008316|   -7.304230|    0.824118|    0.012013|
|         277|   -5.007973|   -7.308073|    0.824115|    0.012014|
|         278|   -5.007414|   -7.311628|    0.824111|    0.012014|
|         279|   -5.006673|   -7.314806|    0.824108|    0.012015|
|         280|   -5.005786|   -7.317531|    0.824105|    0.012015|
|         281|   -5.004789|   -7.319751|    0.824102|    0.012015|
|         282|   -5.003718|   -7.321436|    0.824099|    0.012016|
|         283|   -5.002606|   -7.322584|    0.824097|    0.012016|
|         284|   -5.001487|   -7.323221|    0.824094|    0.012016|
|         285|   -5.000388|   -7.323397|    0.824092|    0.012017|
|         286|   -4.999338|   -7.323186|    0.824090|    0.012017|
|         287|   -4.998359|   -7.322674|    0.824088|    0.012017|
|         288|   -4.997471|   -7.321965|    0.824086|    0.012017|
|         289|   -4.996692|   -7.321164|    0.824085|    0.012017|
|         290|   -4.996035|   -7.320377|    0.824084|    0.012017|
|         291|   -4.995509|   -7.319704|    0.824083|    0.012017|
|         292|   -4.995123|   -7.319244|    0.824082|    0.012017|
|         293|   -4.994882|   -7.319072|    0.824081|    0.012017|
|         294|   -4.994786|   -7.319257|    0.824081|    0.012017|
|         295|   -4.994838|   -7.319850|    0.824081|    0.012017|
|         296|   -4.995037|   -7.320888|    0.824080|    0.012016|
|         297|   -4.995380|   -7.322396|    0.824080|    0.012016|
|         298|   -4.995866|   -7.324378|    0.824080|    0.012016|
|         299|   -4.996492|   -7.326829|    0.824081|    0.012015|
|         300|   -4.997257|   -7.329728|    0.824081|    0.012015|
|         301|   -4.998156|   -7.333044|    0.824081|    0.012009|
+-----------------------------------------------------------------------+
|Fixed CL Mode                           |Value                         |
+-----------------------------------------------------------------------+
|Current CL                              |0.824081                      |
|Target CL                               |0.824                         |
|Previous AOA                            |2.7666                        |
|Changed AoA by                          |-0.000404623                  |
+-----------------------------------------------------------------------+
+----------------------------------------------------------------+
|  Inner_Iter|    rms[Rho]|     rms[nu]|          CL|          CD|
+----------------------------------------------------------------+
|         302|   -3.585957|   -7.296474|    0.824082|    0.012008|
|         303|   -3.968630|   -7.319621|    0.824082|    0.012007|
|         304|   -4.208190|   -7.329869|    0.824083|    0.012007|
|         305|   -4.284257|   -7.337607|    0.824084|    0.012006|
|         306|   -4.335662|   -7.344451|    0.824084|    0.012006|
|         307|   -4.401645|   -7.350759|    0.824085|    0.012005|
|         308|   -4.481619|   -7.356643|    0.824086|    0.012004|
|         309|   -4.562614|   -7.362168|    0.824086|    0.012003|
|         310|   -4.629762|   -7.367373|    0.824087|    0.012003|
|         311|   -4.677267|   -7.372259|    0.824088|    0.012002|
|         312|   -4.708096|   -7.376828|    0.824088|    0.012001|
|         313|   -4.726297|   -7.381116|    0.824089|    0.012000|
|         314|   -4.735240|   -7.385184|    0.824090|    0.012000|
|         315|   -4.739447|   -7.389079|    0.824091|    0.011999|
|         316|   -4.743950|   -7.392818|    0.824091|    0.011998|
|         317|   -4.752166|   -7.396396|    0.824092|    0.011997|
|         318|   -4.764890|   -7.399816|    0.824093|    0.011996|
|         319|   -4.780738|   -7.403104|    0.824094|    0.011995|
|         320|   -4.797408|   -7.406297|    0.824094|    0.011995|
|         321|   -4.813097|   -7.409432|    0.824095|    0.011994|
|         322|   -4.827323|   -7.412538|    0.824096|    0.011993|
|         323|   -4.840722|   -7.415631|    0.824096|    0.011992|
|         324|   -4.854195|   -7.418720|    0.824097|    0.011991|
|         325|   -4.868196|   -7.421816|    0.824098|    0.011991|
|         326|   -4.882538|   -7.424941|    0.824099|    0.011990|
|         327|   -4.896603|   -7.428118|    0.824099|    0.011989|
|         328|   -4.909681|   -7.431376|    0.824100|    0.011988|
|         329|   -4.921201|   -7.434748|    0.824101|    0.011988|
|         330|   -4.930839|   -7.438264|    0.824102|    0.011987|
|         331|   -4.938559|   -7.441953|    0.824102|    0.011986|
|         332|   -4.944614|   -7.445836|    0.824103|    0.011986|
|         333|   -4.949503|   -7.449931|    0.824104|    0.011985|
|         334|   -4.953869|   -7.454247|    0.824105|    0.011985|
|         335|   -4.958339|   -7.458781|    0.824106|    0.011984|
|         336|   -4.963390|   -7.463524|    0.824106|    0.011984|
|         337|   -4.969257|   -7.468458|    0.824107|    0.011983|
|         338|   -4.975914|   -7.473558|    0.824108|    0.011983|
|         339|   -4.983090|   -7.478797|    0.824109|    0.011983|
|         340|   -4.990331|   -7.484146|    0.824109|    0.011982|
|         341|   -4.997092|   -7.489572|    0.824110|    0.011982|
|         342|   -5.002854|   -7.495044|    0.824111|    0.011982|
|         343|   -5.007258|   -7.500533|    0.824112|    0.011982|
|         344|   -5.010192|   -7.506006|    0.824112|    0.011982|
|         345|   -5.011816|   -7.511436|    0.824113|    0.011982|
|         346|   -5.012502|   -7.516790|    0.824113|    0.011982|
|         347|   -5.012713|   -7.522035|    0.824114|    0.011982|
|         348|   -5.012883|   -7.527136|    0.824114|    0.011982|
|         349|   -5.013327|   -7.532058|    0.824115|    0.011982|
|         350|   -5.014203|   -7.536760|    0.824115|    0.011982|
|         351|   -5.015518|   -7.541206|    0.824115|    0.011982|
|         352|   -5.017168|   -7.545355|    0.824116|    0.011982|
|         353|   -5.018989|   -7.549173|    0.824116|    0.011982|
|         354|   -5.020814|   -7.552628|    0.824116|    0.011982|
|         355|   -5.022515|   -7.555697|    0.824115|    0.011983|
|         356|   -5.024027|   -7.558361|    0.824115|    0.011983|
|         357|   -5.025357|   -7.560612|    0.824115|    0.011983|
|         358|   -5.026567|   -7.562454|    0.824114|    0.011984|
|         359|   -5.027754|   -7.563903|    0.824113|    0.011984|
|         360|   -5.029026|   -7.564990|    0.824112|    0.011984|
|         361|   -5.030481|   -7.565754|    0.824111|    0.011985|
|         362|   -5.032198|   -7.566252|    0.824110|    0.011985|
|         363|   -5.034229|   -7.566548|    0.824109|    0.011986|
|         364|   -5.036605|   -7.566711|    0.824107|    0.011986|
|         365|   -5.039339|   -7.566819|    0.824106|    0.011986|
|         366|   -5.042436|   -7.566952|    0.824104|    0.011987|
|         367|   -5.045894|   -7.567189|    0.824102|    0.011987|
|         368|   -5.049714|   -7.567603|    0.824101|    0.011988|
|         369|   -5.053895|   -7.568270|    0.824099|    0.011988|
|         370|   -5.058439|   -7.569246|    0.824097|    0.011989|
|         371|   -5.063349|   -7.570594|    0.824094|    0.011989|
|         372|   -5.068623|   -7.572364|    0.824092|    0.011989|
|         373|   -5.074257|   -7.574596|    0.824090|    0.011990|
|         374|   -5.080242|   -7.577320|    0.824088|    0.011990|
|         375|   -5.086565|   -7.580552|    0.824086|    0.011991|
|         376|   -5.093205|   -7.584296|    0.824084|    0.011991|
|         377|   -5.100139|   -7.588531|    0.824082|    0.011992|
|         378|   -5.107335|   -7.593231|    0.824080|    0.011992|
|         379|   -5.114762|   -7.598357|    0.824078|    0.011992|
|         380|   -5.122381|   -7.603854|    0.824076|    0.011993|
|         381|   -5.130150|   -7.609649|    0.824074|    0.011993|
|         382|   -5.138025|   -7.615659|    0.824072|    0.011994|
|         383|   -5.145955|   -7.621787|    0.824071|    0.011994|
|         384|   -5.153889|   -7.627929|    0.824069|    0.011994|
|         385|   -5.161773|   -7.633972|    0.824068|    0.011995|
|         386|   -5.169550|   -7.639808|    0.824066|    0.011995|
|         387|   -5.177161|   -7.645331|    0.824065|    0.011995|
|         388|   -5.184550|   -7.650439|    0.824064|    0.011995|
|         389|   -5.191660|   -7.655050|    0.824063|    0.011996|
|         390|   -5.198437|   -7.659112|    0.824062|    0.011996|
|         391|   -5.204829|   -7.662601|    0.824061|    0.011996|
|         392|   -5.210790|   -7.665524|    0.824061|    0.011996|
|         393|   -5.216280|   -7.667913|    0.824060|    0.011996|
|         394|   -5.221264|   -7.669829|    0.824060|    0.011996|
|         395|   -5.225715|   -7.671354|    0.824059|    0.011997|
|         396|   -5.229614|   -7.672588|    0.824059|    0.011997|
|         397|   -5.232951|   -7.673643|    0.824059|    0.011997|
|         398|   -5.235722|   -7.674636|    0.824059|    0.011997|
|         399|   -5.237933|   -7.675684|    0.824058|    0.011997|
|         400|   -5.239597|   -7.676901|    0.824058|    0.011997|
|         401|   -5.240733|   -7.678389|    0.824058|    0.011992|
+-----------------------------------------------------------------------+
|Fixed CL Mode                           |Value                         |
+-----------------------------------------------------------------------+
|Current CL                              |0.824058                      |
|Target CL                               |0.824                         |
|Previous AOA                            |2.76619                       |
|Changed AoA by                          |-0.000291648                  |
+-----------------------------------------------------------------------+
+----------------------------------------------------------------+
|  Inner_Iter|    rms[Rho]|     rms[nu]|          CL|          CD|
+----------------------------------------------------------------+
|         402|   -3.728437|   -7.592105|    0.824058|    0.011992|
|         403|   -4.112105|   -7.634977|    0.824058|    0.011992|
|         404|   -4.353398|   -7.651136|    0.824059|    0.011992|
|         405|   -4.430004|   -7.661936|    0.824059|    0.011992|
|         406|   -4.481929|   -7.671054|    0.824059|    0.011992|
|         407|   -4.549166|   -7.679385|    0.824059|    0.011992|
|         408|   -4.631436|   -7.687251|    0.824059|    0.011992|
|         409|   -4.715751|   -7.694864|    0.824059|    0.011991|
|         410|   -4.786498|   -7.702355|    0.824059|    0.011991|
|         411|   -4.836840|   -7.709746|    0.824059|    0.011991|
|         412|   -4.869281|   -7.717043|    0.824059|    0.011991|
|         413|   -4.887878|   -7.724325|    0.824059|    0.011990|
|         414|   -4.896239|   -7.731714|    0.824059|    0.011990|
|         415|   -4.899336|   -7.739275|    0.824059|    0.011990|
|         416|   -4.902661|   -7.746974|    0.824059|    0.011990|
|         417|   -4.909874|   -7.754687|    0.824059|    0.011989|
|         418|   -4.921772|   -7.762285|    0.824059|    0.011989|
|         419|   -4.936835|   -7.769677|    0.824059|    0.011989|
|         420|   -4.952597|   -7.776787|    0.824059|    0.011989|
|         421|   -4.967163|   -7.783541|    0.824058|    0.011988|
|         422|   -4.980069|   -7.789819|    0.824058|    0.011988|
|         423|   -4.992031|   -7.795483|    0.824058|    0.011988|
|         424|   -5.004021|   -7.800385|    0.824057|    0.011988|
|         425|   -5.016514|   -7.804401|    0.824057|    0.011987|
|         426|   -5.029309|   -7.807446|    0.824056|    0.011987|
|         427|   -5.041777|   -7.809485|    0.824055|    0.011987|
|         428|   -5.053216|   -7.810550|    0.824055|    0.011986|
|         429|   -5.063100|   -7.810706|    0.824054|    0.011986|
|         430|   -5.071191|   -7.810050|    0.824053|    0.011986|
|         431|   -5.077554|   -7.808716|    0.824052|    0.011986|
|         432|   -5.082545|   -7.806847|    0.824052|    0.011985|
|         433|   -5.086753|   -7.804592|    0.824051|    0.011985|
|         434|   -5.090880|   -7.802077|    0.824050|    0.011985|
|         435|   -5.095597|   -7.799417|    0.824049|    0.011985|
|         436|   -5.101409|   -7.796708|    0.824048|    0.011984|
|         437|   -5.108580|   -7.794025|    0.824047|    0.011984|
|         438|   -5.117113|   -7.791428|    0.824046|    0.011984|
|         439|   -5.126767|   -7.788966|    0.824045|    0.011984|
|         440|   -5.137106|   -7.786679|    0.824044|    0.011984|
|         441|   -5.147571|   -7.784598|    0.824043|    0.011984|
|         442|   -5.157594|   -7.782751|    0.824042|    0.011984|
|         443|   -5.166721|   -7.781161|    0.824041|    0.011983|
|         444|   -5.174728|   -7.779847|    0.824040|    0.011983|
|         445|   -5.181667|   -7.778825|    0.824039|    0.011983|
|         446|   -5.187839|   -7.778102|    0.824038|    0.011983|
|         447|   -5.193684|   -7.777676|    0.824037|    0.011983|
|         448|   -5.199654|   -7.777532|    0.824036|    0.011983|
|         449|   -5.206096|   -7.777643|    0.824035|    0.011983|
|         450|   -5.213197|   -7.777970|    0.824034|    0.011983|
|         451|   -5.220956|   -7.778461|    0.824033|    0.011983|
|         452|   -5.229217|   -7.779052|    0.824033|    0.011983|
|         453|   -5.237721|   -7.779672|    0.824032|    0.011984|
|         454|   -5.246164|   -7.780248|    0.824031|    0.011984|
|         455|   -5.254267|   -7.780691|    0.824030|    0.011984|
|         456|   -5.261821|   -7.780911|    0.824029|    0.011984|
|         457|   -5.268713|   -7.780827|    0.824028|    0.011984|
|         458|   -5.274924|   -7.780367|    0.824027|    0.011984|
|         459|   -5.280506|   -7.779473|    0.824026|    0.011985|
|         460|   -5.285549|   -7.778101|    0.824025|    0.011985|
|         461|   -5.290147|   -7.776231|    0.824024|    0.011985|
|         462|   -5.294377|   -7.773867|    0.824022|    0.011985|
|         463|   -5.298284|   -7.771039|    0.824021|    0.011986|
|         464|   -5.301885|   -7.767799|    0.824020|    0.011986|
|         465|   -5.305178|   -7.764222|    0.824019|    0.011986|
|         466|   -5.308148|   -7.760395|    0.824017|    0.011987|
|         467|   -5.310787|   -7.756424|    0.824016|    0.011987|
|         468|   -5.313091|   -7.752417|    0.824014|    0.011987|
|         469|   -5.315072|   -7.748487|    0.824013|    0.011988|
|         470|   -5.316749|   -7.744744|    0.824012|    0.011988|
|         471|   -5.318153|   -7.741289|    0.824010|    0.011988|
|         472|   -5.319318|   -7.738211|    0.824009|    0.011989|
|         473|   -5.320280|   -7.735582|    0.824007|    0.011989|
|         474|   -5.321076|   -7.733463|    0.824006|    0.011989|
|         475|   -5.321738|   -7.731893|    0.824005|    0.011990|
|         476|   -5.322301|   -7.730894|    0.824003|    0.011990|
|         477|   -5.322796|   -7.730469|    0.824002|    0.011990|
|         478|   -5.323255|   -7.730603|    0.824001|    0.011991|
|         479|   -5.323710|   -7.731265|    0.824000|    0.011991|
|         480|   -5.324193|   -7.732403|    0.823999|    0.011991|
|         481|   -5.324735|   -7.733950|    0.823998|    0.011992|
|         482|   -5.325366|   -7.735823|    0.823997|    0.011992|
|         483|   -5.326117|   -7.737928|    0.823996|    0.011992|
|         484|   -5.327014|   -7.740162|    0.823995|    0.011993|
|         485|   -5.328085|   -7.742421|    0.823995|    0.011993|
|         486|   -5.329352|   -7.744598|    0.823994|    0.011993|
|         487|   -5.330838|   -7.746596|    0.823994|    0.011993|
|         488|   -5.332561|   -7.748326|    0.823994|    0.011994|
|         489|   -5.334537|   -7.749718|    0.823994|    0.011994|
|         490|   -5.336783|   -7.750719|    0.823994|    0.011994|
|         491|   -5.339307|   -7.751300|    0.823994|    0.011994|
|         492|   -5.342121|   -7.751458|    0.823994|    0.011994|
|         493|   -5.345229|   -7.751211|    0.823994|    0.011994|
|         494|   -5.348636|   -7.750599|    0.823994|    0.011995|
|         495|   -5.352340|   -7.749680|    0.823995|    0.011995|
|         496|   -5.356339|   -7.748526|    0.823995|    0.011995|
|         497|   -5.360626|   -7.747216|    0.823996|    0.011995|
|         498|   -5.365192|   -7.745835|    0.823996|    0.011995|
|         499|   -5.370023|   -7.744463|    0.823997|    0.011995|
|         500|   -5.375101|   -7.743176|    0.823997|    0.011995|
|         501|   -5.380405|   -7.742043|    0.823998|    0.011995|
+-----------------------------------------------------------------------+
|Fixed CL Mode                           |Value                         |
+-----------------------------------------------------------------------+
|Current CL                              |0.823998                      |
|Target CL                               |0.824                         |
|Previous AOA                            |2.7659                        |
|Changed AoA by                          |1.29007e-05                   |
+-----------------------------------------------------------------------+
+----------------------------------------------------------------+
|  Inner_Iter|    rms[Rho]|     rms[nu]|          CL|          CD|
+----------------------------------------------------------------+
|         502|   -5.033515|   -7.740775|    0.823999|    0.011995|
|         503|   -5.275094|   -7.740274|    0.824000|    0.011995|
|         504|   -5.353452|   -7.739951|    0.824000|    0.011995|
|         505|   -5.373094|   -7.739906|    0.824001|    0.011994|
|         506|   -5.385842|   -7.740158|    0.824002|    0.011994|
|         507|   -5.398318|   -7.740709|    0.824002|    0.011994|
|         508|   -5.409891|   -7.741549|    0.824003|    0.011994|
|         509|   -5.419530|   -7.742658|    0.824004|    0.011994|
|         510|   -5.427172|   -7.744007|    0.824004|    0.011993|
|         511|   -5.433412|   -7.745565|    0.824005|    0.011993|
|         512|   -5.438806|   -7.747295|    0.824006|    0.011993|
|         513|   -5.443637|   -7.749161|    0.824006|    0.011993|
|         514|   -5.448023|   -7.751130|    0.824007|    0.011992|
|         515|   -5.452053|   -7.753171|    0.824007|    0.011992|
|         516|   -5.455805|   -7.755259|    0.824007|    0.011992|
|         517|   -5.459304|   -7.757375|    0.824008|    0.011991|
|         518|   -5.462493|   -7.759508|    0.824008|    0.011991|
|         519|   -5.465265|   -7.761651|    0.824008|    0.011990|
|         520|   -5.467512|   -7.763808|    0.824008|    0.011990|
|         521|   -5.469173|   -7.765984|    0.824008|    0.011990|
|         522|   -5.470251|   -7.768194|    0.824008|    0.011989|
|         523|   -5.470793|   -7.770452|    0.824008|    0.011989|
|         524|   -5.470869|   -7.772774|    0.824008|    0.011989|
|         525|   -5.470550|   -7.775178|    0.824007|    0.011988|
|         526|   -5.469899|   -7.777678|    0.824007|    0.011988|
|         527|   -5.468973|   -7.780285|    0.824007|    0.011987|
|         528|   -5.467823|   -7.783006|    0.824006|    0.011987|
|         529|   -5.466500|   -7.785842|    0.824006|    0.011987|
|         530|   -5.465048|   -7.788785|    0.824005|    0.011986|
|         531|   -5.463513|   -7.791823|    0.824004|    0.011986|
|         532|   -5.461937|   -7.794937|    0.824004|    0.011985|
|         533|   -5.460367|   -7.798101|    0.824003|    0.011985|
|         534|   -5.458847|   -7.801283|    0.824002|    0.011985|
|         535|   -5.457423|   -7.804448|    0.824001|    0.011984|
|         536|   -5.456138|   -7.807560|    0.824001|    0.011984|
|         537|   -5.455032|   -7.810581|    0.824000|    0.011984|
|         538|   -5.454139|   -7.813475|    0.823999|    0.011983|
|         539|   -5.453490|   -7.816212|    0.823998|    0.011983|
|         540|   -5.453107|   -7.818767|    0.823997|    0.011983|
|         541|   -5.453008|   -7.821124|    0.823997|    0.011983|
|         542|   -5.453207|   -7.823276|    0.823996|    0.011982|
|         543|   -5.453714|   -7.825229|    0.823995|    0.011982|
|         544|   -5.454537|   -7.826997|    0.823995|    0.011982|
|         545|   -5.455683|   -7.828607|    0.823994|    0.011982|
|         546|   -5.457157|   -7.830096|    0.823993|    0.011982|
|         547|   -5.458962|   -7.831507|    0.823993|    0.011982|
|         548|   -5.461100|   -7.832892|    0.823992|    0.011982|
|         549|   -5.463569|   -7.834305|    0.823992|    0.011982|
|         550|   -5.466365|   -7.835802|    0.823992|    0.011982|
|         551|   -5.469481|   -7.837438|    0.823991|    0.011982|
|         552|   -5.472907|   -7.839269|    0.823991|    0.011982|
|         553|   -5.476632|   -7.841342|    0.823991|    0.011982|
|         554|   -5.480639|   -7.843700|    0.823991|    0.011982|
|         555|   -5.484913|   -7.846373|    0.823991|    0.011982|
|         556|   -5.489434|   -7.849383|    0.823991|    0.011982|
|         557|   -5.494182|   -7.852740|    0.823991|    0.011982|
|         558|   -5.499133|   -7.856442|    0.823991|    0.011983|
|         559|   -5.504263|   -7.860476|    0.823991|    0.011983|
|         560|   -5.509543|   -7.864814|    0.823991|    0.011983|
|         561|   -5.514943|   -7.869420|    0.823991|    0.011984|
|         562|   -5.520427|   -7.874244|    0.823992|    0.011984|
|         563|   -5.525960|   -7.879228|    0.823992|    0.011984|
|         564|   -5.531500|   -7.884304|    0.823992|    0.011985|
|         565|   -5.537006|   -7.889397|    0.823992|    0.011985|
|         566|   -5.542433|   -7.894429|    0.823993|    0.011986|
|         567|   -5.547734|   -7.899320|    0.823993|    0.011986|
|         568|   -5.552860|   -7.903994|    0.823993|    0.011986|
|         569|   -5.557765|   -7.908378|    0.823994|    0.011987|
|         570|   -5.562402|   -7.912411|    0.823994|    0.011987|
|         571|   -5.566724|   -7.916043|    0.823994|    0.011988|
|         572|   -5.570689|   -7.919240|    0.823994|    0.011989|
|         573|   -5.574260|   -7.921984|    0.823995|    0.011989|
|         574|   -5.577403|   -7.924275|    0.823995|    0.011990|
|         575|   -5.580093|   -7.926132|    0.823995|    0.011990|
|         576|   -5.582310|   -7.927588|    0.823995|    0.011991|
|         577|   -5.584045|   -7.928688|    0.823995|    0.011991|
|         578|   -5.585297|   -7.929486|    0.823995|    0.011992|
|         579|   -5.586072|   -7.930044|    0.823995|    0.011992|
|         580|   -5.586388|   -7.930426|    0.823995|    0.011993|
|         581|   -5.586269|   -7.930696|    0.823995|    0.011994|
|         582|   -5.585749|   -7.930914|    0.823995|    0.011994|
|         583|   -5.584868|   -7.931135|    0.823995|    0.011995|
|         584|   -5.583670|   -7.931409|    0.823995|    0.011995|
|         585|   -5.582205|   -7.931774|    0.823994|    0.011996|
|         586|   -5.580525|   -7.932263|    0.823994|    0.011996|
|         587|   -5.578686|   -7.932896|    0.823994|    0.011997|
|         588|   -5.576742|   -7.933686|    0.823993|    0.011997|
|         589|   -5.574749|   -7.934634|    0.823993|    0.011998|
|         590|   -5.572760|   -7.935735|    0.823992|    0.011998|
|         591|   -5.570826|   -7.936975|    0.823992|    0.011998|
|         592|   -5.568997|   -7.938334|    0.823991|    0.011999|
|         593|   -5.567318|   -7.939785|    0.823991|    0.011999|
|         594|   -5.565834|   -7.941298|    0.823990|    0.012000|
|         595|   -5.564582|   -7.942841|    0.823990|    0.012000|
|         596|   -5.563598|   -7.944381|    0.823989|    0.012000|
|         597|   -5.562916|   -7.945887|    0.823989|    0.012000|
|         598|   -5.562561|   -7.947325|    0.823988|    0.012001|
|         599|   -5.562560|   -7.948665|    0.823987|    0.012001|
|         600|   -5.562933|   -7.949881|    0.823987|    0.012001|
|         601|   -5.563698|   -7.950950|    0.823986|    0.012002|
+-----------------------------------------------------------------------+
|Fixed CL Mode                           |Value                         |
+-----------------------------------------------------------------------+
|Current CL                              |0.823986                      |
|Target CL                               |0.824                         |
|Previous AOA                            |2.76592                       |
|Changed AoA by                          |6.59642e-05                   |
+-----------------------------------------------------------------------+
+----------------------------------------------------------------+
|  Inner_Iter|    rms[Rho]|     rms[nu]|          CL|          CD|
+----------------------------------------------------------------+
|         602|   -4.373034|   -7.932575|    0.823986|    0.012002|
|         603|   -4.752841|   -7.942893|    0.823985|    0.012003|
|         604|   -4.986142|   -7.946441|    0.823984|    0.012003|
|         605|   -5.058837|   -7.948412|    0.823984|    0.012003|
|         606|   -5.107347|   -7.949628|    0.823983|    0.012003|
|         607|   -5.168359|   -7.950330|    0.823982|    0.012003|
|         608|   -5.240068|   -7.950644|    0.823982|    0.012003|
|         609|   -5.309564|   -7.950666|    0.823981|    0.012003|
|         610|   -5.364323|   -7.950466|    0.823981|    0.012003|
|         611|   -5.401523|   -7.950084|    0.823980|    0.012003|
|         612|   -5.425413|   -7.949551|    0.823979|    0.012003|
|         613|   -5.440128|   -7.948904|    0.823979|    0.012002|
|         614|   -5.448527|   -7.948182|    0.823978|    0.012002|
|         615|   -5.453843|   -7.947419|    0.823978|    0.012002|
|         616|   -5.459559|   -7.946632|    0.823977|    0.012002|
|         617|   -5.468054|   -7.945836|    0.823976|    0.012002|
|         618|   -5.479835|   -7.945043|    0.823976|    0.012001|
|         619|   -5.493822|   -7.944268|    0.823975|    0.012001|
|         620|   -5.508292|   -7.943532|    0.823975|    0.012001|
|         621|   -5.521921|   -7.942857|    0.823974|    0.012000|
|         622|   -5.534341|   -7.942252|    0.823974|    0.012000|
|         623|   -5.545960|   -7.941725|    0.823973|    0.012000|
|         624|   -5.557359|   -7.941278|    0.823973|    0.011999|
|         625|   -5.568800|   -7.940912|    0.823972|    0.011999|
|         626|   -5.580105|   -7.940633|    0.823972|    0.011999|
|         627|   -5.590827|   -7.940440|    0.823971|    0.011998|
|         628|   -5.600476|   -7.940335|    0.823971|    0.011998|
|         629|   -5.608686|   -7.940319|    0.823970|    0.011997|
|         630|   -5.615269|   -7.940392|    0.823970|    0.011997|
|         631|   -5.620229|   -7.940552|    0.823970|    0.011997|
|         632|   -5.623760|   -7.940796|    0.823969|    0.011996|
|         633|   -5.626208|   -7.941119|    0.823969|    0.011996|
|         634|   -5.628005|   -7.941515|    0.823969|    0.011995|
|         635|   -5.629574|   -7.941974|    0.823969|    0.011995|
|         636|   -5.631242|   -7.942489|    0.823969|    0.011994|
|         637|   -5.633188|   -7.943051|    0.823968|    0.011994|
|         638|   -5.635436|   -7.943654|    0.823968|    0.011993|
|         639|   -5.637877|   -7.944291|    0.823968|    0.011993|
|         640|   -5.640314|   -7.944959|    0.823968|    0.011993|
|         641|   -5.642520|   -7.945659|    0.823968|    0.011992|
|         642|   -5.644297|   -7.946396|    0.823969|    0.011992|
|         643|   -5.645535|   -7.947179|    0.823969|    0.011991|
|         644|   -5.646243|   -7.948019|    0.823969|    0.011991|
|         645|   -5.646550|   -7.948931|    0.823969|    0.011990|
|         646|   -5.646670|   -7.949930|    0.823969|    0.011990|
|         647|   -5.646848|   -7.951035|    0.823970|    0.011990|
|         648|   -5.647310|   -7.952263|    0.823970|    0.011989|
|         649|   -5.648220|   -7.953632|    0.823971|    0.011989|
|         650|   -5.649665|   -7.955158|    0.823971|    0.011989|
|         651|   -5.651657|   -7.956860|    0.823972|    0.011988|
|         652|   -5.654151|   -7.958754|    0.823972|    0.011988|
|         653|   -5.657070|   -7.960855|    0.823973|    0.011988|
|         654|   -5.660336|   -7.963177|    0.823974|    0.011988|
|         655|   -5.663880|   -7.965733|    0.823974|    0.011987|
|         656|   -5.667667|   -7.968533|    0.823975|    0.011987|
|         657|   -5.671687|   -7.971584|    0.823976|    0.011987|
|         658|   -5.675959|   -7.974893|    0.823977|    0.011987|
|         659|   -5.680517|   -7.978468|    0.823978|    0.011987|
|         660|   -5.685401|   -7.982315|    0.823979|    0.011987|
|         661|   -5.690645|   -7.986436|    0.823980|    0.011986|
|         662|   -5.696272|   -7.990837|    0.823981|    0.011986|
|         663|   -5.702293|   -7.995516|    0.823982|    0.011986|
|         664|   -5.708702|   -8.000472|    0.823983|    0.011986|
|         665|   -5.715484|   -8.005701|    0.823984|    0.011986|
|         666|   -5.722613|   -8.011194|    0.823985|    0.011986|
|         667|   -5.730059|   -8.016940|    0.823986|    0.011986|
|         668|   -5.737789|   -8.022918|    0.823987|    0.011987|
|         669|   -5.745765|   -8.029115|    0.823988|    0.011987|
|         670|   -5.753948|   -8.035514|    0.823989|    0.011987|
|         671|   -5.762295|   -8.042091|    0.823990|    0.011987|
|         672|   -5.770757|   -8.048820|    0.823991|    0.011987|
|         673|   -5.779281|   -8.055674|    0.823992|    0.011987|
|         674|   -5.787806|   -8.062619|    0.823993|    0.011988|
|         675|   -5.796265|   -8.069622|    0.823994|    0.011988|
|         676|   -5.804588|   -8.076647|    0.823995|    0.011988|
|         677|   -5.812697|   -8.083658|    0.823995|    0.011988|
|         678|   -5.820514|   -8.090618|    0.823996|    0.011989|
|         679|   -5.827961|   -8.097495|    0.823997|    0.011989|
|         680|   -5.834961|   -8.104255|    0.823998|    0.011989|
|         681|   -5.841444|   -8.110873|    0.823998|    0.011990|
|         682|   -5.847346|   -8.117324|    0.823999|    0.011990|
|         683|   -5.852614|   -8.123591|    0.823999|    0.011990|
|         684|   -5.857210|   -8.129666|    0.824000|    0.011991|
|         685|   -5.861106|   -8.135550|    0.824000|    0.011991|
|         686|   -5.864295|   -8.141248|    0.824001|    0.011991|
|         687|   -5.866783|   -8.146772|    0.824001|    0.011992|
|         688|   -5.868593|   -8.152141|    0.824001|    0.011992|
|         689|   -5.869765|   -8.157377|    0.824001|    0.011992|
|         690|   -5.870349|   -8.162510|    0.824001|    0.011993|
|         691|   -5.870408|   -8.167574|    0.824001|    0.011993|
|         692|   -5.870014|   -8.172603|    0.824001|    0.011994|
|         693|   -5.869243|   -8.177637|    0.824001|    0.011994|
|         694|   -5.868175|   -8.182713|    0.824001|    0.011994|
|         695|   -5.866891|   -8.187870|    0.824001|    0.011995|
|         696|   -5.865470|   -8.193142|    0.824001|    0.011995|
|         697|   -5.863988|   -8.198563|    0.824001|    0.011996|
|         698|   -5.862516|   -8.204162|    0.824000|    0.011996|
|         699|   -5.861122|   -8.209964|    0.824000|    0.011996|
|         700|   -5.859866|   -8.215987|    0.824000|    0.011997|
|         701|   -5.858803|   -8.222245|    0.823999|    0.011997|
|         702|   -5.857982|   -8.228745|    0.823999|    0.011998|
|         703|   -5.857446|   -8.235486|    0.823999|    0.011998|
|         704|   -5.857232|   -8.242460|    0.823998|    0.011998|
|         705|   -5.857370|   -8.249654|    0.823998|    0.011998|
|         706|   -5.857887|   -8.257045|    0.823997|    0.011999|
|         707|   -5.858804|   -8.264604|    0.823996|    0.011999|
|         708|   -5.860136|   -8.272296|    0.823996|    0.011999|
|         709|   -5.861894|   -8.280079|    0.823995|    0.012000|
|         710|   -5.864085|   -8.287904|    0.823995|    0.012000|
|         711|   -5.866710|   -8.295719|    0.823994|    0.012000|
|         712|   -5.869768|   -8.303468|    0.823993|    0.012000|
|         713|   -5.873251|   -8.311095|    0.823993|    0.012000|
|         714|   -5.877147|   -8.318542|    0.823992|    0.012001|
|         715|   -5.881441|   -8.325749|    0.823991|    0.012001|
|         716|   -5.886112|   -8.332662|    0.823991|    0.012001|
|         717|   -5.891134|   -8.339226|    0.823990|    0.012001|
|         718|   -5.896477|   -8.345395|    0.823990|    0.012001|
|         719|   -5.902106|   -8.351127|    0.823989|    0.012001|
|         720|   -5.907980|   -8.356386|    0.823988|    0.012001|
|         721|   -5.914053|   -8.361148|    0.823988|    0.012001|
|         722|   -5.920275|   -8.365395|    0.823987|    0.012001|
|         723|   -5.926589|   -8.369120|    0.823986|    0.012001|
|         724|   -5.932935|   -8.372321|    0.823986|    0.012001|
|         725|   -5.939249|   -8.375010|    0.823985|    0.012001|
|         726|   -5.945465|   -8.377202|    0.823985|    0.012001|
|         727|   -5.951515|   -8.378932|    0.823984|    0.012001|
|         728|   -5.957328|   -8.380256|    0.823984|    0.012001|
|         729|   -5.962838|   -8.381195|    0.823983|    0.012001|
|         730|   -5.967981|   -8.381773|    0.823983|    0.012001|
|         731|   -5.972699|   -8.382015|    0.823982|    0.012000|
|         732|   -5.976939|   -8.381951|    0.823982|    0.012000|
|         733|   -5.980661|   -8.381615|    0.823982|    0.012000|
|         734|   -5.983834|   -8.381043|    0.823981|    0.012000|
|         735|   -5.986439|   -8.380271|    0.823981|    0.012000|
|         736|   -5.988470|   -8.379337|    0.823981|    0.011999|
|         737|   -5.989936|   -8.378298|    0.823980|    0.011999|
|         738|   -5.990855|   -8.377191|    0.823980|    0.011999|
|         739|   -5.991259|   -8.376036|    0.823980|    0.011999|
|         740|   -5.991189|   -8.374848|    0.823980|    0.011998|
|         741|   -5.990695|   -8.373647|    0.823979|    0.011998|
|         742|   -5.989833|   -8.372468|    0.823979|    0.011998|
|         743|   -5.988664|   -8.371323|    0.823979|    0.011997|
|         744|   -5.987248|   -8.370226|    0.823979|    0.011997|
|         745|   -5.985650|   -8.369194|    0.823979|    0.011997|
|         746|   -5.983932|   -8.368245|    0.823979|    0.011997|
|         747|   -5.982151|   -8.367400|    0.823978|    0.011996|
|         748|   -5.980365|   -8.366678|    0.823978|    0.011996|
|         749|   -5.978625|   -8.366095|    0.823978|    0.011996|
|         750|   -5.976978|   -8.365668|    0.823978|    0.011995|
|         751|   -5.975465|   -8.365408|    0.823978|    0.011995|
|         752|   -5.974122|   -8.365328|    0.823978|    0.011995|
|         753|   -5.972981|   -8.365439|    0.823978|    0.011994|
|         754|   -5.972068|   -8.365751|    0.823978|    0.011994|
|         755|   -5.971403|   -8.366274|    0.823978|    0.011994|
|         756|   -5.971003|   -8.367019|    0.823978|    0.011993|
|         757|   -5.970878|   -8.367995|    0.823978|    0.011993|
|         758|   -5.971036|   -8.369208|    0.823978|    0.011993|
|         759|   -5.971480|   -8.370664|    0.823978|    0.011992|
|         760|   -5.972209|   -8.372370|    0.823978|    0.011992|
|         761|   -5.973216|   -8.374327|    0.823979|    0.011992|
|         762|   -5.974493|   -8.376539|    0.823979|    0.011992|
|         763|   -5.976028|   -8.379008|    0.823979|    0.011991|
|         764|   -5.977805|   -8.381734|    0.823979|    0.011991|
|         765|   -5.979804|   -8.384718|    0.823979|    0.011991|
|         766|   -5.982003|   -8.387961|    0.823979|    0.011991|
|         767|   -5.984376|   -8.391463|    0.823979|    0.011990|
|         768|   -5.986894|   -8.395226|    0.823980|    0.011990|
|         769|   -5.989527|   -8.399250|    0.823980|    0.011990|
|         770|   -5.992240|   -8.403536|    0.823980|    0.011990|
|         771|   -5.994998|   -8.408085|    0.823980|    0.011990|
|         772|   -5.997764|   -8.412898|    0.823981|    0.011990|
|         773|   -6.000500|   -8.417974|    0.823981|    0.011990|
|         774|   -6.003165|   -8.423310|    0.823981|    0.011989|
|         775|   -6.005722|   -8.428902|    0.823981|    0.011989|
|         776|   -6.008132|   -8.434742|    0.823982|    0.011989|
|         777|   -6.010359|   -8.440821|    0.823982|    0.011989|
|         778|   -6.012369|   -8.447123|    0.823982|    0.011989|
|         779|   -6.014131|   -8.453628|    0.823983|    0.011989|
|         780|   -6.015619|   -8.460311|    0.823983|    0.011989|
|         781|   -6.016812|   -8.467140|    0.823984|    0.011989|
|         782|   -6.017692|   -8.474077|    0.823984|    0.011989|
|         783|   -6.018251|   -8.481081|    0.823984|    0.011989|
|         784|   -6.018484|   -8.488097|    0.823985|    0.011989|
|         785|   -6.018393|   -8.495062|    0.823985|    0.011989|
|         786|   -6.017988|   -8.501907|    0.823985|    0.011989|
|         787|   -6.017284|   -8.508554|    0.823986|    0.011990|
|         788|   -6.016300|   -8.514926|    0.823986|    0.011990|
|         789|   -6.015063|   -8.520949|    0.823987|    0.011990|
|         790|   -6.013600|   -8.526556|    0.823987|    0.011990|
|         791|   -6.011946|   -8.531690|    0.823987|    0.011990|
|         792|   -6.010134|   -8.536304|    0.823988|    0.011990|
|         793|   -6.008202|   -8.540363|    0.823988|    0.011991|
|         794|   -6.006186|   -8.543847|    0.823988|    0.011991|
|         795|   -6.004126|   -8.546754|    0.823989|    0.011991|
|         796|   -6.002056|   -8.549095|    0.823989|    0.011991|
|         797|   -6.000015|   -8.550897|    0.823989|    0.011991|
|         798|   -5.998034|   -8.552202|    0.823989|    0.011992|
|         799|   -5.996147|   -8.553060|    0.823990|    0.011992|
|         800|   -5.994383|   -8.553533|    0.823990|    0.011992|
|         801|   -5.992768|   -8.553688|    0.823990|    0.011993|
+-----------------------------------------------------------------------+
|Fixed CL Mode                           |Value                         |
+-----------------------------------------------------------------------+
|Current CL                              |0.82399                       |
|Target CL                               |0.824                         |
|Previous AOA                            |2.76598                       |
|Changed AoA by                          |5.09844e-05                   |
+-----------------------------------------------------------------------+
+----------------------------------------------------------------+
|  Inner_Iter|    rms[Rho]|     rms[nu]|          CL|          CD|
+----------------------------------------------------------------+
|         802|   -4.485765|   -8.417174|    0.823990|    0.011993|
|         803|   -4.869143|   -8.475833|    0.823990|    0.011994|
|         804|   -5.109671|   -8.496532|    0.823990|    0.011994|
|         805|   -5.185718|   -8.508276|    0.823991|    0.011994|
|         806|   -5.237236|   -8.516389|    0.823991|    0.011994|
|         807|   -5.304012|   -8.522316|    0.823991|    0.011995|
|         808|   -5.385739|   -8.526733|    0.823991|    0.011995|
|         809|   -5.469586|   -8.530160|    0.823991|    0.011995|
|         810|   -5.540252|   -8.532972|    0.823991|    0.011995|
|         811|   -5.591068|   -8.535340|    0.823991|    0.011996|
|         812|   -5.624422|   -8.537384|    0.823991|    0.011996|
|         813|   -5.644176|   -8.539295|    0.823991|    0.011996|
|         814|   -5.653763|   -8.541304|    0.823991|    0.011996|
|         815|   -5.658046|   -8.543556|    0.823991|    0.011997|
|         816|   -5.662517|   -8.546075|    0.823991|    0.011997|
|         817|   -5.670916|   -8.548813|    0.823991|    0.011997|
|         818|   -5.684137|   -8.551730|    0.823990|    0.011997|
|         819|   -5.700707|   -8.554833|    0.823990|    0.011997|
|         820|   -5.718136|   -8.558170|    0.823990|    0.011998|
|         821|   -5.734443|   -8.561772|    0.823990|    0.011998|
|         822|   -5.749081|   -8.565636|    0.823990|    0.011998|
|         823|   -5.762732|   -8.569704|    0.823990|    0.011998|
|         824|   -5.776379|   -8.573901|    0.823989|    0.011998|
|         825|   -5.790509|   -8.578147|    0.823989|    0.011998|
|         826|   -5.804899|   -8.582364|    0.823989|    0.011999|
|         827|   -5.818856|   -8.586540|    0.823989|    0.011999|
|         828|   -5.831585|   -8.590615|    0.823989|    0.011999|
|         829|   -5.842456|   -8.594564|    0.823988|    0.011999|
|         830|   -5.851134|   -8.598384|    0.823988|    0.011999|
|         831|   -5.857611|   -8.602067|    0.823988|    0.011999|
|         832|   -5.862204|   -8.605601|    0.823988|    0.011999|
|         833|   -5.865499|   -8.608964|    0.823987|    0.011999|
|         834|   -5.868224|   -8.612121|    0.823987|    0.011999|
|         835|   -5.871070|   -8.615020|    0.823987|    0.011999|
|         836|   -5.874552|   -8.617592|    0.823987|    0.011999|
|         837|   -5.878914|   -8.619751|    0.823986|    0.011999|
|         838|   -5.884123|   -8.621408|    0.823986|    0.011999|
|         839|   -5.889891|   -8.622471|    0.823986|    0.011999|
|         840|   -5.895746|   -8.622854|    0.823986|    0.011999|
|         841|   -5.901135|   -8.622484|    0.823986|    0.011999|
|         842|   -5.905543|   -8.621304|    0.823985|    0.011999|
|         843|   -5.908626|   -8.619279|    0.823985|    0.011999|
|         844|   -5.910298|   -8.616394|    0.823985|    0.011999|
|         845|   -5.910748|   -8.612660|    0.823985|    0.011999|
|         846|   -5.910368|   -8.608107|    0.823985|    0.011999|
|         847|   -5.909635|   -8.602776|    0.823985|    0.011999|
|         848|   -5.908987|   -8.596736|    0.823984|    0.011999|
|         849|   -5.908741|   -8.590058|    0.823984|    0.011999|
|         850|   -5.909054|   -8.582824|    0.823984|    0.011998|
|         851|   -5.909937|   -8.575136|    0.823984|    0.011998|
|         852|   -5.911288|   -8.567095|    0.823984|    0.011998|
|         853|   -5.912951|   -8.558805|    0.823984|    0.011998|
|         854|   -5.914761|   -8.550373|    0.823984|    0.011998|
|         855|   -5.916590|   -8.541919|    0.823984|    0.011998|
|         856|   -5.918370|   -8.533557|    0.823984|    0.011998|
|         857|   -5.920096|   -8.525393|    0.823984|    0.011997|
|         858|   -5.921817|   -8.517531|    0.823985|    0.011997|
|         859|   -5.923612|   -8.510067|    0.823985|    0.011997|
|         860|   -5.925572|   -8.503093|    0.823985|    0.011997|
|         861|   -5.927777|   -8.496693|    0.823985|    0.011997|
|         862|   -5.930285|   -8.490947|    0.823985|    0.011997|
|         863|   -5.933131|   -8.485923|    0.823986|    0.011997|
|         864|   -5.936327|   -8.481684|    0.823986|    0.011996|
|         865|   -5.939865|   -8.478285|    0.823986|    0.011996|
|         866|   -5.943728|   -8.475771|    0.823987|    0.011996|
|         867|   -5.947893|   -8.474183|    0.823987|    0.011996|
|         868|   -5.952335|   -8.473548|    0.823988|    0.011996|
|         869|   -5.957030|   -8.473885|    0.823988|    0.011996|
|         870|   -5.961954|   -8.475203|    0.823988|    0.011995|
|         871|   -5.967082|   -8.477497|    0.823989|    0.011995|
|         872|   -5.972386|   -8.480754|    0.823989|    0.011995|
|         873|   -5.977834|   -8.484946|    0.823990|    0.011995|
|         874|   -5.983389|   -8.490028|    0.823990|    0.011995|
|         875|   -5.989008|   -8.495943|    0.823991|    0.011995|
|         876|   -5.994644|   -8.502615|    0.823991|    0.011994|
|         877|   -6.000247|   -8.509949|    0.823991|    0.011994|
|         878|   -6.005763|   -8.517834|    0.823992|    0.011994|
|         879|   -6.011135|   -8.526141|    0.823992|    0.011994|
|         880|   -6.016309|   -8.534723|    0.823993|    0.011994|
|         881|   -6.021231|   -8.543420|    0.823993|    0.011994|
|         882|   -6.025848|   -8.552065|    0.823993|    0.011994|
|         883|   -6.030112|   -8.560485|    0.823994|    0.011994|
|         884|   -6.033980|   -8.568517|    0.823994|    0.011993|
|         885|   -6.037416|   -8.576008|    0.823994|    0.011993|
|         886|   -6.040391|   -8.582834|    0.823995|    0.011993|
|         887|   -6.042883|   -8.588900|    0.823995|    0.011993|
|         888|   -6.044882|   -8.594153|    0.823995|    0.011993|
|         889|   -6.046384|   -8.598584|    0.823995|    0.011993|
|         890|   -6.047396|   -8.602228|    0.823995|    0.011993|
|         891|   -6.047934|   -8.605157|    0.823996|    0.011993|
|         892|   -6.048020|   -8.607479|    0.823996|    0.011993|
|         893|   -6.047684|   -8.609324|    0.823996|    0.011993|
|         894|   -6.046962|   -8.610838|    0.823996|    0.011993|
|         895|   -6.045892|   -8.612169|    0.823996|    0.011993|
|         896|   -6.044516|   -8.613462|    0.823996|    0.011993|
|         897|   -6.042879|   -8.614850|    0.823996|    0.011993|
|         898|   -6.041025|   -8.616451|    0.823996|    0.011993|
|         899|   -6.038999|   -8.618361|    0.823996|    0.011993|
|         900|   -6.036842|   -8.620653|    0.823996|    0.011993|
|         901|   -6.034599|   -8.623379|    0.823996|    0.011993|
+-----------------------------------------------------------------------+
|Fixed CL Mode                           |Value                         |
+-----------------------------------------------------------------------+
|Current CL                              |0.823996                      |
|Target CL                               |0.824                         |
|Previous AOA                            |2.76603                       |
|Changed AoA by                          |1.85999e-05                   |
+-----------------------------------------------------------------------+
+----------------------------------------------------------------+
|  Inner_Iter|    rms[Rho]|     rms[nu]|          CL|          CD|
+----------------------------------------------------------------+
|         902|   -4.922757|   -8.593992|    0.823996|    0.011993|
|         903|   -5.301421|   -8.613758|    0.823996|    0.011993|
|         904|   -5.529474|   -8.623088|    0.823996|    0.011993|
|         905|   -5.596486|   -8.630503|    0.823996|    0.011993|
|         906|   -5.639730|   -8.637256|    0.823996|    0.011993|
|         907|   -5.694015|   -8.643607|    0.823996|    0.011993|
[...]
|        5298|   -6.047976|   -7.928129|    0.824239|    0.011999|
|        5299|   -6.054689|   -7.931946|    0.824239|    0.011999|
|        5300|   -6.060970|   -7.935788|    0.824239|    0.011999|
|        5301|   -6.066785|   -7.939667|    0.824239|    0.011999|
|        5302|   -6.072113|   -7.943593|    0.824239|    0.011999|
|        5303|   -6.076947|   -7.947574|    0.824240|    0.011999|
|        5304|   -6.081292|   -7.951614|    0.824240|    0.011999|
|        5305|   -6.085165|   -7.955718|    0.824240|    0.011999|
|        5306|   -6.088595|   -7.959888|    0.824240|    0.011999|
|        5307|   -6.091622|   -7.964126|    0.824240|    0.011999|
|        5308|   -6.094292|   -7.968432|    0.824240|    0.011999|
|        5309|   -6.096658|   -7.972802|    0.824240|    0.011998|
|        5310|   -6.098779|   -7.977235|    0.824240|    0.011998|
|        5311|   -6.100716|   -7.981732|    0.824240|    0.011998|
|        5312|   -6.102529|   -7.986293|    0.824240|    0.011998|
|        5313|   -6.104276|   -7.990921|    0.824240|    0.011998|
|        5314|   -6.106015|   -7.995620|    0.824241|    0.011998|
|        5315|   -6.107798|   -8.000394|    0.824241|    0.011998|
|        5316|   -6.109672|   -8.005250|    0.824241|    0.011999|
|        5317|   -6.111680|   -8.010193|    0.824241|    0.011999|
|        5318|   -6.113857|   -8.015228|    0.824241|    0.011999|
|        5319|   -6.116233|   -8.020363|    0.824241|    0.011999|
|        5320|   -6.118832|   -8.025600|    0.824241|    0.011999|
|        5321|   -6.121668|   -8.030946|    0.824241|    0.011999|
|        5322|   -6.124752|   -8.036404|    0.824242|    0.011999|
|        5323|   -6.128087|   -8.041976|    0.824242|    0.011999|
|        5324|   -6.131667|   -8.047665|    0.824242|    0.011999|
|        5325|   -6.135483|   -8.053469|    0.824242|    0.011999|
|        5326|   -6.139517|   -8.059388|    0.824242|    0.011999|
|        5327|   -6.143746|   -8.065418|    0.824242|    0.011999|
|        5328|   -6.148143|   -8.071555|    0.824243|    0.011999|
|        5329|   -6.152673|   -8.077793|    0.824243|    0.011999|
|        5330|   -6.157299|   -8.084125|    0.824243|    0.011999|
|        5331|   -6.161979|   -8.090543|    0.824243|    0.011999|
|        5332|   -6.166668|   -8.097037|    0.824243|    0.012000|
|        5333|   -6.171322|   -8.103598|    0.824243|    0.012000|
|        5334|   -6.175895|   -8.110216|    0.824243|    0.012000|
|        5335|   -6.180341|   -8.116881|    0.824244|    0.012000|
|        5336|   -6.184620|   -8.123584|    0.824244|    0.012000|
|        5337|   -6.188694|   -8.130315|    0.824244|    0.012000|
|        5338|   -6.192529|   -8.137068|    0.824244|    0.012000|
|        5339|   -6.196102|   -8.143836|    0.824244|    0.012000|
|        5340|   -6.199395|   -8.150611|    0.824244|    0.012000|
|        5341|   -6.202398|   -8.157392|    0.824244|    0.012000|
|        5342|   -6.205112|   -8.164173|    0.824245|    0.012000|
|        5343|   -6.207544|   -8.170955|    0.824245|    0.012000|
|        5344|   -6.209713|   -8.177735|    0.824245|    0.012000|
|        5345|   -6.211644|   -8.184516|    0.824245|    0.012001|
|        5346|   -6.213367|   -8.191298|    0.824245|    0.012001|
|        5347|   -6.214921|   -8.198084|    0.824245|    0.012001|
|        5348|   -6.216347|   -8.204878|    0.824245|    0.012001|
|        5349|   -6.217689|   -8.211685|    0.824245|    0.012001|
|        5350|   -6.218993|   -8.218510|    0.824245|    0.012001|
|        5351|   -6.220306|   -8.225356|    0.824246|    0.012001|
|        5352|   -6.221672|   -8.232230|    0.824246|    0.012001|
|        5353|   -6.223136|   -8.239134|    0.824246|    0.012001|
|        5354|   -6.224737|   -8.246072|    0.824246|    0.012001|
|        5355|   -6.226514|   -8.253045|    0.824246|    0.012001|
|        5356|   -6.228500|   -8.260054|    0.824246|    0.012001|
|        5357|   -6.230724|   -8.267101|    0.824246|    0.012001|
|        5358|   -6.233212|   -8.274183|    0.824246|    0.012001|
|        5359|   -6.235982|   -8.281300|    0.824246|    0.012001|
|        5360|   -6.239051|   -8.288449|    0.824246|    0.012001|
|        5361|   -6.242429|   -8.295626|    0.824246|    0.012001|
|        5362|   -6.246121|   -8.302826|    0.824246|    0.012001|
|        5363|   -6.250127|   -8.310046|    0.824246|    0.012001|
|        5364|   -6.254442|   -8.317277|    0.824246|    0.012001|
|        5365|   -6.259057|   -8.324515|    0.824246|    0.012001|
|        5366|   -6.263956|   -8.331752|    0.824246|    0.012001|
|        5367|   -6.269121|   -8.338981|    0.824246|    0.012001|
|        5368|   -6.274525|   -8.346195|    0.824246|    0.012001|
|        5369|   -6.280141|   -8.353385|    0.824246|    0.012001|
|        5370|   -6.285933|   -8.360544|    0.824246|    0.012001|
|        5371|   -6.291863|   -8.367666|    0.824246|    0.012001|
|        5372|   -6.297885|   -8.374744|    0.824246|    0.012001|
|        5373|   -6.303961|   -8.381772|    0.824246|    0.012001|
|        5374|   -6.310041|   -8.388743|    0.824246|    0.012001|
|        5375|   -6.316078|   -8.395653|    0.824246|    0.012001|
|        5376|   -6.322021|   -8.402493|    0.824246|    0.012001|
|        5377|   -6.327821|   -8.409262|    0.824246|    0.012001|
|        5378|   -6.333431|   -8.415961|    0.824246|    0.012001|
|        5379|   -6.338805|   -8.422591|    0.824246|    0.012001|
|        5380|   -6.343904|   -8.429155|    0.824246|    0.012001|
|        5381|   -6.348691|   -8.435657|    0.824246|    0.012001|
|        5382|   -6.353136|   -8.442100|    0.824246|    0.012000|
|        5383|   -6.357216|   -8.448491|    0.824246|    0.012000|
|        5384|   -6.360917|   -8.454834|    0.824246|    0.012000|
|        5385|   -6.364231|   -8.461134|    0.824246|    0.012000|
|        5386|   -6.367158|   -8.467397|    0.824246|    0.012000|
|        5387|   -6.369703|   -8.473627|    0.824246|    0.012000|
|        5388|   -6.371879|   -8.479829|    0.824246|    0.012000|
|        5389|   -6.373703|   -8.486004|    0.824246|    0.012000|
|        5390|   -6.375199|   -8.492152|    0.824246|    0.012000|
|        5391|   -6.376390|   -8.498273|    0.824246|    0.012000|
|        5392|   -6.377304|   -8.504363|    0.824246|    0.012000|
|        5393|   -6.377966|   -8.510416|    0.824246|    0.011999|
|        5394|   -6.378405|   -8.516426|    0.824246|    0.011999|
|        5395|   -6.378648|   -8.522382|    0.824246|    0.011999|
|        5396|   -6.378722|   -8.528271|    0.824247|    0.011999|
|        5397|   -6.378649|   -8.534079|    0.824247|    0.011999|
|        5398|   -6.378449|   -8.539787|    0.824247|    0.011999|
|        5399|   -6.378139|   -8.545378|    0.824247|    0.011999|
|        5400|   -6.377735|   -8.550831|    0.824247|    0.011999|
|        5401|   -6.377249|   -8.556127|    0.824247|    0.011999|
|        5402|   -6.376692|   -8.561245|    0.824247|    0.011999|
|        5403|   -6.376071|   -8.566169|    0.824247|    0.011998|
|        5404|   -6.375392|   -8.570879|    0.824248|    0.011998|
|        5405|   -6.374660|   -8.575363|    0.824248|    0.011998|
|        5406|   -6.373880|   -8.579609|    0.824248|    0.011998|
|        5407|   -6.373053|   -8.583609|    0.824248|    0.011998|
|        5408|   -6.372183|   -8.587359|    0.824248|    0.011998|
|        5409|   -6.371270|   -8.590859|    0.824248|    0.011998|
|        5410|   -6.370318|   -8.594111|    0.824248|    0.011998|
|        5411|   -6.369328|   -8.597122|    0.824249|    0.011998|
|        5412|   -6.368303|   -8.599903|    0.824249|    0.011998|
|        5413|   -6.367246|   -8.602463|    0.824249|    0.011998|
|        5414|   -6.366160|   -8.604811|    0.824249|    0.011997|
|        5415|   -6.365050|   -8.606965|    0.824249|    0.011997|
|        5416|   -6.363920|   -8.608940|    0.824249|    0.011997|
|        5417|   -6.362775|   -8.610755|    0.824249|    0.011997|
|        5418|   -6.361622|   -8.612425|    0.824250|    0.011997|
|        5419|   -6.360468|   -8.613964|    0.824250|    0.011997|
|        5420|   -6.359320|   -8.615386|    0.824250|    0.011997|
|        5421|   -6.358187|   -8.616700|    0.824250|    0.011997|
|        5422|   -6.357078|   -8.617915|    0.824250|    0.011997|
|        5423|   -6.356003|   -8.619036|    0.824250|    0.011997|
|        5424|   -6.354972|   -8.620069|    0.824250|    0.011997|
|        5425|   -6.353997|   -8.621014|    0.824250|    0.011997|
|        5426|   -6.353091|   -8.621874|    0.824250|    0.011997|
|        5427|   -6.352266|   -8.622647|    0.824250|    0.011997|
|        5428|   -6.351536|   -8.623334|    0.824251|    0.011997|
|        5429|   -6.350915|   -8.623934|    0.824251|    0.011997|
|        5430|   -6.350419|   -8.624449|    0.824251|    0.011997|
|        5431|   -6.350062|   -8.624877|    0.824251|    0.011997|
|        5432|   -6.349860|   -8.625223|    0.824251|    0.011997|
|        5433|   -6.349828|   -8.625489|    0.824251|    0.011997|
|        5434|   -6.349982|   -8.625680|    0.824251|    0.011997|
|        5435|   -6.350338|   -8.625804|    0.824251|    0.011997|
|        5436|   -6.350909|   -8.625869|    0.824251|    0.011997|
|        5437|   -6.351711|   -8.625885|    0.824251|    0.011997|
|        5438|   -6.352755|   -8.625865|    0.824251|    0.011997|
|        5439|   -6.354054|   -8.625819|    0.824251|    0.011997|
|        5440|   -6.355619|   -8.625762|    0.824251|    0.011997|
|        5441|   -6.357457|   -8.625705|    0.824251|    0.011997|
|        5442|   -6.359577|   -8.625662|    0.824251|    0.011997|
|        5443|   -6.361983|   -8.625645|    0.824251|    0.011997|
|        5444|   -6.364677|   -8.625668|    0.824251|    0.011997|
|        5445|   -6.367660|   -8.625741|    0.824251|    0.011997|
|        5446|   -6.370928|   -8.625875|    0.824251|    0.011997|
|        5447|   -6.374475|   -8.626078|    0.824251|    0.011997|
|        5448|   -6.378294|   -8.626360|    0.824251|    0.011997|
|        5449|   -6.382371|   -8.626726|    0.824251|    0.011997|
|        5450|   -6.386690|   -8.627180|    0.824251|    0.011997|
|        5451|   -6.391232|   -8.627726|    0.824251|    0.011998|
|        5452|   -6.395975|   -8.628366|    0.824251|    0.011998|
|        5453|   -6.400891|   -8.629099|    0.824251|    0.011998|
|        5454|   -6.405951|   -8.629924|    0.824251|    0.011998|
|        5455|   -6.411120|   -8.630838|    0.824251|    0.011998|
|        5456|   -6.416361|   -8.631838|    0.824251|    0.011998|
|        5457|   -6.421635|   -8.632920|    0.824251|    0.011998|
|        5458|   -6.426898|   -8.634077|    0.824251|    0.011998|
|        5459|   -6.432107|   -8.635306|    0.824251|    0.011998|
|        5460|   -6.437215|   -8.636599|    0.824251|    0.011998|
|        5461|   -6.442176|   -8.637951|    0.824251|    0.011998|
|        5462|   -6.446944|   -8.639356|    0.824251|    0.011998|
|        5463|   -6.451475|   -8.640807|    0.824251|    0.011999|
|        5464|   -6.455726|   -8.642300|    0.824251|    0.011999|
|        5465|   -6.459660|   -8.643829|    0.824251|    0.011999|
|        5466|   -6.463242|   -8.645390|    0.824251|    0.011999|
|        5467|   -6.466443|   -8.646977|    0.824250|    0.011999|
|        5468|   -6.469244|   -8.648587|    0.824250|    0.011999|
|        5469|   -6.471627|   -8.650217|    0.824250|    0.011999|
|        5470|   -6.473586|   -8.651871|    0.824250|    0.011999|
|        5471|   -6.475120|   -8.653546|    0.824250|    0.011999|
|        5472|   -6.476238|   -8.655236|    0.824250|    0.011999|
|        5473|   -6.476953|   -8.656936|    0.824250|    0.011999|
|        5474|   -6.477286|   -8.658645|    0.824250|    0.011999|
|        5475|   -6.477264|   -8.660360|    0.824249|    0.011999|
|        5476|   -6.476917|   -8.662081|    0.824249|    0.011999|
|        5477|   -6.476280|   -8.663804|    0.824249|    0.012000|
|        5478|   -6.475391|   -8.665531|    0.824249|    0.012000|
|        5479|   -6.474288|   -8.667259|    0.824249|    0.012000|
|        5480|   -6.473011|   -8.668988|    0.824249|    0.012000|
|        5481|   -6.471601|   -8.670716|    0.824249|    0.012000|
|        5482|   -6.470095|   -8.672443|    0.824248|    0.012000|
|        5483|   -6.468532|   -8.674168|    0.824248|    0.012000|
|        5484|   -6.466947|   -8.675891|    0.824248|    0.012000|
|        5485|   -6.465373|   -8.677611|    0.824248|    0.012000|
|        5486|   -6.463842|   -8.679328|    0.824248|    0.012000|
|        5487|   -6.462381|   -8.681042|    0.824248|    0.012000|
|        5488|   -6.461016|   -8.682755|    0.824248|    0.012000|
|        5489|   -6.459769|   -8.684467|    0.824247|    0.012000|
|        5490|   -6.458660|   -8.686181|    0.824247|    0.012000|
|        5491|   -6.457707|   -8.687899|    0.824247|    0.012000|
|        5492|   -6.456925|   -8.689624|    0.824247|    0.012000|
|        5493|   -6.456325|   -8.691360|    0.824247|    0.012000|
|        5494|   -6.455917|   -8.693110|    0.824247|    0.012000|
|        5495|   -6.455710|   -8.694879|    0.824247|    0.012000|
|        5496|   -6.455710|   -8.696673|    0.824247|    0.012000|
|        5497|   -6.455920|   -8.698495|    0.824246|    0.012000|
|        5498|   -6.456344|   -8.700353|    0.824246|    0.012000|
|        5499|   -6.456983|   -8.702251|    0.824246|    0.011985|
+-----------------------------------------------------------------------+
|Fixed CL Mode (Finite Difference)       |Value                         |
+-----------------------------------------------------------------------+
|Delta CL / Delta AoA                    |0.246157                      |
|Delta CD / Delta CL                     |0.0198654                     |
|Delta CMz / Delta CL                    |0.0104965                     |
+-----------------------------------------------------------------------+
Writing Flow Meta-Data file: flow.meta

----------------------------- Solver Exit -------------------------------

Maximum number of iterations reached (ITER = 5500) before convergence.
+-----------------------------------------------------------------------+
|      Convergence Field     |     Value    |   Criterion  |  Converged |
+-----------------------------------------------------------------------+
|                    rms[Rho]|      -6.45698|         < -12|          No|
+-----------------------------------------------------------------------+
-------------------------------------------------------------------------

--------------------------- Finalizing Solver ---------------------------
Deleted CNumerics container.
Deleted CIntegration container.
Deleted CSolver container.
Deleted CIteration container.
Deleted CInterface container.
Deleted CGeometry container.
Deleted CFreeFormDefBox class.
Deleted CSurfaceMovement class.
Deleted CVolumetricMovement class.
Deleted CConfig container.
Deleted nInst container.
Deleted COutput class.
-------------------------------------------------------------------------

------------------------- Exit Success (SU2_CFD) ------------------------


-------------------------------------------------------------------------
|    ___ _   _ ___                                                      |
|   / __| | | |_  )   Release 8.0.0 "Harrier"                           |
|   \__ \ |_| |/ /                                                      |
|   |___/\___//___|   Suite (Solution Exporting Code)                   |
|                                                                       |
-------------------------------------------------------------------------
| SU2 Project Website: https://su2code.github.io                        |
|                                                                       |
| The SU2 Project is maintained by the SU2 Foundation                   |
| (http://su2foundation.org)                                            |
-------------------------------------------------------------------------
| Copyright 2012-2023, SU2 Contributors                                 |
|                                                                       |
| SU2 is free software; you can redistribute it and/or                  |
| modify it under the terms of the GNU Lesser General Public            |
| License as published by the Free Software Foundation; either          |
| version 2.1 of the License, or (at your option) any later version.    |
|                                                                       |
| SU2 is distributed in the hope that it will be useful,                |
| but WITHOUT ANY WARRANTY; without even the implied warranty of        |
| MERCHANTABILITY or FITNESS FOR A PARTICULAR PURPOSE. See the GNU      |
| Lesser General Public License for more details.                       |
|                                                                       |
| You should have received a copy of the GNU Lesser General Public      |
| License along with SU2. If not, see <http://www.gnu.org/licenses/>.   |
-------------------------------------------------------------------------

----------------- Physical Case Definition ( Zone 0 ) -------------------
Input mesh file name: mesh_RAE2822_turb_deform.su2

-------------------- Output Information ( Zone 0 ) ----------------------
The tabular file format is CSV (.csv).
Flow variables file name: flow.

------------- Config File Boundary Information ( Zone 0 ) ---------------
+-----------------------------------------------------------------------+
|                        Marker Type|                        Marker Name|
+-----------------------------------------------------------------------+
|                          Far-field|                           FARFIELD|
+-----------------------------------------------------------------------+
|                     Heat flux wall|                            AIRFOIL|
+-----------------------------------------------------------------------+
Two dimensional problem.
13937 grid points before partitioning.
22842 volume elements before partitioning.
2 surface markers.
192 boundary elements in index 0 (Marker = AIRFOIL).
40 boundary elements in index 1 (Marker = FARFIELD).
Executing the partitioning functions.
Building the graph adjacency structure.
Calling ParMETIS... graph partitioning complete (831 edge cuts).
Distributing ParMETIS coloring.
Rebalancing vertices.
Rebalancing volume element connectivity.
Rebalancing markers and surface elements.
14875 vertices including ghost points. 
23674 interior elements including halo cells. 
18780 triangles.
4894 quadrilaterals.
Establishing MPI communication patterns.
Identify vertices.
Storing a mapping from global to local point index.

------------------------- Solution Postprocessing -----------------------
Reading and storing the solution from restart_flow.
Volume output fields: COORDINATES, SOLUTION
  Info: Ignoring the following screen output fields:
  RMS_DENSITY, RMS_NU_TILDE, LIFT, DRAG
Screen output fields: INNER_ITER
  Info: Ignoring the following history output groups:
  RMS_RES, AERO_COEFF
History output group(s): ITER
Warning: No (valid) fields chosen for convergence monitoring. Convergence monitoring inactive.
Warning: No (valid) fields chosen for time convergence monitoring. Time convergence monitoring inactive.
|Paraview                           |flow.vtu                           |
|Paraview surface                   |surface_flow.vtu                   |
|CSV file                           |surface_flow.csv                   |

------------------------- Finalize Solver -------------------------
Deleted CGeometry container.
Deleted CSolver class.
Deleted CConfig container.
Deleted COutput class.

Completed in 0.017759 seconds on 6 cores.

------------------------- Exit Success (SU2_SOL) ------------------------

