
-------------------------------------------------------------------------
|    ___ _   _ ___                                                      |
|   / __| | | |_  )   Release 8.0.0 "Harrier"                           |
|   \__ \ |_| |/ /                                                      |
|   |___/\___//___|   Suite (Computational Fluid Dynamics Code)         |
|                                                                       |
-------------------------------------------------------------------------
| SU2 Project Website: https://su2code.github.io                        |
|                                                                       |
| The SU2 Project is maintained by the SU2 Foundation                   |
| (http://su2foundation.org)                                            |
-------------------------------------------------------------------------
| Copyright 2012-2023, SU2 Contributors                                 |
|                                                                       |
| SU2 is free software; you can redistribute it and/or                  |
| modify it under the terms of the GNU Lesser General Public            |
| License as published by the Free Software Foundation; either          |
| version 2.1 of the License, or (at your option) any later version.    |
|                                                                       |
| SU2 is distributed in the hope that it will be useful,                |
| but WITHOUT ANY WARRANTY; without even the implied warranty of        |
| MERCHANTABILITY or FITNESS FOR A PARTICULAR PURPOSE. See the GNU      |
| Lesser General Public License for more details.                       |
|                                                                       |
| You should have received a copy of the GNU Lesser General Public      |
| License along with SU2. If not, see <http://www.gnu.org/licenses/>.   |
-------------------------------------------------------------------------

Parsing config file for zone 0

----------------- Physical Case Definition ( Zone 0 ) -------------------
Compressible RANS equations.
Turbulence model: Spalart-Allmaras-noft2
Hybrid RANS/LES: No Hybrid RANS/LES
Mach number: 0.734.
Angle of attack (AoA): 2.31 deg, and angle of sideslip (AoS): 0 deg.
Reynolds number: 6.5e+06. Reference length 1.
Fixed CL mode, target value: 0.824.
Reading and writing binary SU2 native restart files.
Read flow solution from: solution_flow.dat.
Dimensional simulation.
The reference area is 1 m^2.
The semi-span will be computed using the max y(3D) value.
The reference length is 1 m.
Reference origin for moment evaluation is (0.25, 0, 0).
Surface(s) where the force coefficients are evaluated: AIRFOIL.

Surface(s) plotted in the output file: AIRFOIL.
Surface(s) affected by the design variables: AIRFOIL.
Input mesh file name: mesh_RAE2822_turb_deform.su2

--------------- Space Numerical Integration ( Zone 0 ) ------------------
Jameson-Schmidt-Turkel scheme (2nd order in space) for the flow inviscid terms.
JST viscous coefficients (2nd & 4th): 0.5, 0.02.
The method includes a grid stretching correction (p = 0.3).
Scalar upwind solver for the turbulence model.
First order integration in space.
Average of gradients with correction (viscous flow terms).
Average of gradients with correction (viscous turbulence terms).
Gradient for viscous and source terms: inverse-distance weighted Least-Squares.

--------------- Time Numerical Integration  ( Zone 0 ) ------------------
Local time stepping (steady state simulation).
Euler implicit method for the flow equations.
FGMRES is used for solving the linear system.
Using a ILU(0) preconditioning.
Convergence criteria of the linear solver: 1e-06.
Max number of linear iterations: 10.
No CFL adaptation.
Courant-Friedrichs-Lewy number:       10
Euler implicit time integration for the turbulence model.

------------------ Convergence Criteria  ( Zone 0 ) ---------------------
Maximum number of solver subiterations: 5500.
Begin convergence monitoring at iteration 10.
Residual minimum value: 1e-12.
Cauchy series min. value: 1e-06.
Number of Cauchy elements: 100.
Begin windowed time average at iteration 0.

-------------------- Output Information ( Zone 0 ) ----------------------
File writing frequency: 
+------------------------------------+
|                     File| Frequency|
+------------------------------------+
|                  RESTART|     10000|
|                 PARAVIEW|     10000|
|         SURFACE_PARAVIEW|     10000|
|              SURFACE_CSV|     10000|
+------------------------------------+
Writing the convergence history file every 1 inner iterations.
Writing the screen convergence history every 1 inner iterations.
The tabular file format is CSV (.csv).
Convergence history file name: history_direct.
Forces breakdown file name: forces_breakdown.dat.
Surface file name: surface_flow.
Volume file name: flow.
Restart file name: restart_flow.dat.

------------- Config File Boundary Information ( Zone 0 ) ---------------
+-----------------------------------------------------------------------+
|                        Marker Type|                        Marker Name|
+-----------------------------------------------------------------------+
|                          Far-field|                           FARFIELD|
+-----------------------------------------------------------------------+
|                     Heat flux wall|                            AIRFOIL|
+-----------------------------------------------------------------------+

-------------------- Output Preprocessing ( Zone 0 ) --------------------

WARNING: SURFACE_PRESSURE_DROP can only be computed for at least 2 surfaces (outlet, inlet, ...)

Screen output fields: INNER_ITER, RMS_DENSITY, RMS_NU_TILDE, LIFT, DRAG
History output group(s): ITER, RMS_RES, AERO_COEFF
Convergence field(s): RMS_DENSITY
Warning: No (valid) fields chosen for time convergence monitoring. Time convergence monitoring inactive.
Volume output fields: COORDINATES, SOLUTION, PRIMITIVE

------------------- Geometry Preprocessing ( Zone 0 ) -------------------
Two dimensional problem.
13937 grid points before partitioning.
22842 volume elements before partitioning.
2 surface markers.
192 boundary elements in index 0 (Marker = AIRFOIL).
40 boundary elements in index 1 (Marker = FARFIELD).
Executing the partitioning functions.
Building the graph adjacency structure.
Calling ParMETIS... graph partitioning complete (831 edge cuts).
Distributing ParMETIS coloring.
Rebalancing vertices.
Rebalancing volume element connectivity.
Rebalancing markers and surface elements.
14875 vertices including ghost points. 
23674 interior elements including halo cells. 
18780 triangles.
4894 quadrilaterals.
Establishing MPI communication patterns.
Setting point connectivity.
Renumbering points (Reverse Cuthill McKee Ordering).
Recomputing point connectivity.
Setting element connectivity.
Checking the numerical grid orientation.
All volume elements are correctly orientend.
All surface elements are correctly orientend.
Identifying edges and vertices.
Setting the control volume structure.
Area of the computational grid: 32209.9.
Searching for the closest normal neighbors to the surfaces.
Storing a mapping from global to local point index.
Compute the surface curvature.
Max K: 175.503. Mean K: 7.86509. Standard deviation K: 24.1494.
Checking for periodicity.
Computing mesh quality statistics for the dual control volumes.
+--------------------------------------------------------------+
|           Mesh Quality Metric|        Minimum|        Maximum|
+--------------------------------------------------------------+
|    Orthogonality Angle (deg.)|        75.1168|        89.9991|
|     CV Face Area Aspect Ratio|        1.00399|        3358.49|
|           CV Sub-Volume Ratio|        1.00046|        1215.36|
+--------------------------------------------------------------+
Finding max control volume width.
Communicating number of neighbors.
Wetted area = 2.02181 m.
Area projection in the x-plane = 0.124892 m, y-plane = 0.995873 m.
Max. coordinate in the x-direction = 1 m, y-direction = 0.0620382 m.
Min. coordinate in the x-direction = 0 m, y-direction = -0.0599678 m.
Computing wall distances.

-------------------- Solver Preprocessing ( Zone 0 ) --------------------
WARNING: AoA in the solution file (2.78891 deg.) +
         AoA offset in mesh file (0 deg.) = 2.78891 deg.
WARNING: SU2 will use the dCD/dCL provided in the direct solution file: 0.0173865.
WARNING: SU2 will use the dCMz/dCL provided in the direct solution file: 0.0015791.
Viscous flow: Computing pressure using the ideal gas law
based on the free-stream temperature and a density computed
from the Reynolds number.
Force coefficients computed using free-stream values.

-- Models:
+------------------------------------------------------------------------------+
|          Viscosity Model|        Conductivity Model|              Fluid Model|
+------------------------------------------------------------------------------+
|               SUTHERLAND|          CONSTANT_PRANDTL|             STANDARD_AIR|
+------------------------------------------------------------------------------+
-- Fluid properties:
+------------------------------------------------------------------------------+
|                  Name|    Dim. value|    Ref. value|      Unit|Non-dim. value|
+------------------------------------------------------------------------------+
|        Ref. Viscosity|     1.716e-05|             1|   N.s/m^2|     1.716e-05|
|      Sutherland Temp.|        273.15|             1|         K|        273.15|
|     Sutherland Const.|         110.4|             1|         K|         110.4|
+------------------------------------------------------------------------------+
|        Prandtl (Lam.)|             -|             -|         -|          0.71|
|       Prandtl (Turb.)|             -|             -|         -|           0.9|
+------------------------------------------------------------------------------+
|          Gas Constant|       287.058|             1|  N.m/kg.K|       287.058|
|      Spec. Heat Ratio|             -|             -|         -|           1.4|
+------------------------------------------------------------------------------+
-- Initial and free-stream conditions:
+------------------------------------------------------------------------------+
|                  Name|    Dim. value|    Ref. value|      Unit|Non-dim. value|
+------------------------------------------------------------------------------+
|       Static Pressure|         38515|             1|        Pa|         38515|
|               Density|      0.465631|             1|    kg/m^3|      0.465631|
|           Temperature|        288.15|             1|         K|        288.15|
|          Total Energy|        237984|             1|   m^2/s^2|        237984|
|            Velocity-X|       249.482|             1|       m/s|       249.482|
|            Velocity-Y|       12.1533|             1|       m/s|       12.1533|
|    Velocity Magnitude|       249.778|             1|       m/s|       249.778|
+------------------------------------------------------------------------------+
|             Viscosity|    1.7893e-05|             1|   N.s/m^2|    1.7893e-05|
|          Conductivity|             -|             1|   W/m^2.K|             -|
|     Turb. Kin. Energy|       233.959|             1|   m^2/s^2|       233.959|
|     Spec. Dissipation|        608834|             1|       1/s|        608834|
+------------------------------------------------------------------------------+
|           Mach Number|             -|             -|         -|         0.734|
|       Reynolds Number|             -|             -|         -|       6.5e+06|
+------------------------------------------------------------------------------+
Initialize Jacobian structure (Navier-Stokes). MG level: 0.
Initialize Jacobian structure (SA model).

------------------- Numerics Preprocessing ( Zone 0 ) -------------------

----------------- Integration Preprocessing ( Zone 0 ) ------------------

------------------- Iteration Preprocessing ( Zone 0 ) ------------------
Euler/Navier-Stokes/RANS fluid iteration.

------------------------------ Begin Solver -----------------------------

Simulation Run using the Single-zone Driver
WARNING: SU2 was not compiled for an AVX-capable architecture. Performance could be better,
         see https://su2code.github.io/docs_v7/Build-SU2-Linux-MacOS/#compiler-optimizations
+----------------------------------------------------------------+
|  Inner_Iter|    rms[Rho]|     rms[nu]|          CL|          CD|
+----------------------------------------------------------------+
|           0|   -5.107818|   -6.511774|    0.824047|    0.011952|
|           1|   -5.159172|   -6.610964|    0.824069|    0.011953|
|           2|   -5.214527|   -6.739446|    0.824074|    0.011955|
|           3|   -5.260504|   -6.892371|    0.824069|    0.011957|
|           4|   -5.295482|   -7.045278|    0.824061|    0.011958|
|           5|   -5.318253|   -7.144806|    0.824054|    0.011959|
|           6|   -5.329709|   -7.167633|    0.824049|    0.011958|
|           7|   -5.332584|   -7.152628|    0.824048|    0.011958|
|           8|   -5.329507|   -7.127228|    0.824051|    0.011959|
|           9|   -5.322259|   -7.095884|    0.824055|    0.011960|
|          10|   -5.312080|   -7.060811|    0.824062|    0.011962|
|          11|   -5.300076|   -7.028081|    0.824070|    0.011965|
|          12|   -5.287302|   -7.004238|    0.824079|    0.011969|
|          13|   -5.274629|   -6.993423|    0.824088|    0.011974|
|          14|   -5.262675|   -6.996971|    0.824097|    0.011979|
|          15|   -5.251867|   -7.013599|    0.824104|    0.011985|
|          16|   -5.242546|   -7.039027|    0.824109|    0.011991|
|          17|   -5.235012|   -7.065248|    0.824113|    0.011997|
|          18|   -5.229466|   -7.081605|    0.824114|    0.012003|
|          19|   -5.225915|   -7.080349|    0.824114|    0.012008|
|          20|   -5.224111|   -7.062846|    0.824111|    0.012014|
|          21|   -5.223584|   -7.037814|    0.824106|    0.012019|
|          22|   -5.223767|   -7.014251|    0.824100|    0.012023|
|          23|   -5.224155|   -6.997717|    0.824093|    0.012027|
|          24|   -5.224432|   -6.990480|    0.824085|    0.012030|
|          25|   -5.224512|   -6.992648|    0.824077|    0.012033|
|          26|   -5.224480|   -7.002966|    0.824069|    0.012035|
|          27|   -5.224493|   -7.019198|    0.824061|    0.012037|
|          28|   -5.224679|   -7.038359|    0.824054|    0.012039|
|          29|   -5.225076|   -7.057092|    0.824047|    0.012040|
|          30|   -5.225625|   -7.072363|    0.824041|    0.012040|
|          31|   -5.226190|   -7.082345|    0.824036|    0.012041|
|          32|   -5.226595|   -7.086931|    0.824031|    0.012041|
|          33|   -5.226657|   -7.087497|    0.824027|    0.012041|
|          34|   -5.226223|   -7.086081|    0.824023|    0.012041|
|          35|   -5.225178|   -7.084577|    0.824018|    0.012041|
|          36|   -5.223469|   -7.084299|    0.824014|    0.012040|
|          37|   -5.221102|   -7.085875|    0.824010|    0.012040|
|          38|   -5.218138|   -7.089339|    0.824005|    0.012040|
|          39|   -5.214675|   -7.094271|    0.823999|    0.012039|
|          40|   -5.210837|   -7.099959|    0.823994|    0.012039|
|          41|   -5.206752|   -7.105556|    0.823987|    0.012038|
|          42|   -5.202537|   -7.110253|    0.823981|    0.012038|
|          43|   -5.198291|   -7.113443|    0.823973|    0.012037|
|          44|   -5.194079|   -7.114832|    0.823966|    0.012036|
|          45|   -5.189932|   -7.114483|    0.823958|    0.012035|
|          46|   -5.185845|   -7.112762|    0.823950|    0.012035|
|          47|   -5.181781|   -7.110226|    0.823942|    0.012034|
|          48|   -5.177681|   -7.107488|    0.823934|    0.012033|
|          49|   -5.173472|   -7.105104|    0.823926|    0.012032|
|          50|   -5.169084|   -7.103501|    0.823918|    0.012031|
|          51|   -5.164464|   -7.102945|    0.823912|    0.012029|
|          52|   -5.159587|   -7.103541|    0.823905|    0.012028|
|          53|   -5.154463|   -7.105257|    0.823900|    0.012027|
|          54|   -5.149134|   -7.107961|    0.823895|    0.012025|
|          55|   -5.143674|   -7.111464|    0.823891|    0.012024|
|          56|   -5.138174|   -7.115561|    0.823889|    0.012023|
|          57|   -5.132732|   -7.120069|    0.823887|    0.012021|
|          58|   -5.127442|   -7.124848|    0.823886|    0.012020|
|          59|   -5.122383|   -7.129808|    0.823885|    0.012018|
|          60|   -5.117613|   -7.134893|    0.823886|    0.012016|
|          61|   -5.113166|   -7.140065|    0.823887|    0.012015|
|          62|   -5.109050|   -7.145276|    0.823889|    0.012013|
|          63|   -5.105258|   -7.150453|    0.823891|    0.012012|
|          64|   -5.101765|   -7.155494|    0.823894|    0.012010|
|          65|   -5.098540|   -7.160284|    0.823897|    0.012009|
|          66|   -5.095550|   -7.164714|    0.823900|    0.012007|
|          67|   -5.092766|   -7.168712|    0.823904|    0.012006|
|          68|   -5.090169|   -7.172263|    0.823907|    0.012005|
|          69|   -5.087748|   -7.175419|    0.823910|    0.012003|
|          70|   -5.085503|   -7.178290|    0.823914|    0.012002|
|          71|   -5.083441|   -7.181021|    0.823917|    0.012001|
|          72|   -5.081576|   -7.183757|    0.823920|    0.011999|
|          73|   -5.079921|   -7.186616|    0.823923|    0.011998|
|          74|   -5.078490|   -7.189662|    0.823925|    0.011997|
|          75|   -5.077291|   -7.192899|    0.823928|    0.011996|
|          76|   -5.076330|   -7.196268|    0.823930|    0.011995|
|          77|   -5.075604|   -7.199666|    0.823932|    0.011994|
|          78|   -5.075108|   -7.202970|    0.823934|    0.011993|
|          79|   -5.074830|   -7.206059|    0.823936|    0.011993|
|          80|   -5.074755|   -7.208837|    0.823938|    0.011992|
|          81|   -5.074865|   -7.211256|    0.823939|    0.011991|
|          82|   -5.075142|   -7.213319|    0.823941|    0.011990|
|          83|   -5.075562|   -7.215079|    0.823942|    0.011990|
|          84|   -5.076104|   -7.216623|    0.823943|    0.011989|
|          85|   -5.076743|   -7.218059|    0.823944|    0.011988|
|          86|   -5.077455|   -7.219495|    0.823945|    0.011988|
|          87|   -5.078217|   -7.221030|    0.823946|    0.011987|
|          88|   -5.079006|   -7.222741|    0.823947|    0.011987|
|          89|   -5.079805|   -7.224680|    0.823948|    0.011987|
|          90|   -5.080602|   -7.226874|    0.823948|    0.011986|
|          91|   -5.081390|   -7.229329|    0.823949|    0.011986|
|          92|   -5.082173|   -7.232039|    0.823950|    0.011986|
|          93|   -5.082964|   -7.234985|    0.823951|    0.011985|
|          94|   -5.083783|   -7.238151|    0.823952|    0.011985|
|          95|   -5.084659|   -7.241517|    0.823953|    0.011985|
|          96|   -5.085629|   -7.245073|    0.823954|    0.011985|
|          97|   -5.086731|   -7.248813|    0.823955|    0.011985|
|          98|   -5.088008|   -7.252742|    0.823957|    0.011985|
|          99|   -5.089498|   -7.256867|    0.823958|    0.011985|
|         100|   -5.091234|   -7.261199|    0.823960|    0.011986|
|         101|   -5.093244|   -7.265749|    0.823962|    0.011989|
+-----------------------------------------------------------------------+
|Fixed CL Mode                           |Value                         |
+-----------------------------------------------------------------------+
|Current CL                              |0.823962                      |
|Target CL                               |0.824                         |
|Previous AOA                            |2.78891                       |
|Changed AoA by                          |0.00019934                    |
+-----------------------------------------------------------------------+
+----------------------------------------------------------------+
|  Inner_Iter|    rms[Rho]|     rms[nu]|          CL|          CD|
+----------------------------------------------------------------+
|         102|   -3.893281|   -7.263451|    0.823964|    0.011989|
|         103|   -4.278600|   -7.272170|    0.823967|    0.011990|
|         104|   -4.526873|   -7.278407|    0.823969|    0.011990|
|         105|   -4.605901|   -7.284362|    0.823972|    0.011991|
|         106|   -4.654209|   -7.290388|    0.823975|    0.011992|
|         107|   -4.713367|   -7.296564|    0.823977|    0.011992|
|         108|   -4.781625|   -7.302898|    0.823980|    0.011993|
|         109|   -4.844722|   -7.309379|    0.823983|    0.011994|
|         110|   -4.890133|   -7.315987|    0.823986|    0.011995|
|         111|   -4.917284|   -7.322697|    0.823988|    0.011996|
|         112|   -4.932621|   -7.329484|    0.823991|    0.011997|
|         113|   -4.941192|   -7.336327|    0.823993|    0.011999|
|         114|   -4.945843|   -7.343209|    0.823996|    0.012000|
|         115|   -4.949176|   -7.350105|    0.823998|    0.012001|
|         116|   -4.953742|   -7.356980|    0.824000|    0.012002|
|         117|   -4.961074|   -7.363794|    0.824001|    0.012003|
|         118|   -4.971121|   -7.370505|    0.824003|    0.012004|
|         119|   -4.982547|   -7.377076|    0.824004|    0.012005|
|         120|   -4.993626|   -7.383475|    0.824005|    0.012007|
|         121|   -5.003187|   -7.389676|    0.824006|    0.012008|
|         122|   -5.011045|   -7.395662|    0.824007|    0.012009|
|         123|   -5.017723|   -7.401418|    0.824007|    0.012010|
|         124|   -5.023840|   -7.406937|    0.824007|    0.012011|
|         125|   -5.029682|   -7.412225|    0.824008|    0.012012|
|         126|   -5.035118|   -7.417290|    0.824008|    0.012013|
|         127|   -5.039788|   -7.422149|    0.824008|    0.012014|
|         128|   -5.043314|   -7.426825|    0.824008|    0.012014|
|         129|   -5.045451|   -7.431345|    0.824008|    0.012015|
|         130|   -5.046134|   -7.435734|    0.824008|    0.012016|
|         131|   -5.045481|   -7.440013|    0.824008|    0.012017|
|         132|   -5.043760|   -7.444199|    0.824007|    0.012018|
|         133|   -5.041340|   -7.448302|    0.824007|    0.012019|
|         134|   -5.038616|   -7.452330|    0.824007|    0.012020|
|         135|   -5.035935|   -7.456280|    0.824008|    0.012021|
|         136|   -5.033539|   -7.460143|    0.824008|    0.012021|
|         137|   -5.031543|   -7.463906|    0.824008|    0.012022|
|         138|   -5.029942|   -7.467543|    0.824008|    0.012023|
|         139|   -5.028637|   -7.471029|    0.824009|    0.012024|
|         140|   -5.027477|   -7.474329|    0.824009|    0.012025|
|         141|   -5.026297|   -7.477410|    0.824010|    0.012026|
|         142|   -5.024961|   -7.480238|    0.824010|    0.012026|
|         143|   -5.023390|   -7.482781|    0.824011|    0.012027|
|         144|   -5.021580|   -7.485013|    0.824011|    0.012028|
|         145|   -5.019592|   -7.486911|    0.824012|    0.012029|
|         146|   -5.017534|   -7.488467|    0.824013|    0.012030|
|         147|   -5.015529|   -7.489680|    0.824013|    0.012031|
|         148|   -5.013684|   -7.490564|    0.824014|    0.012031|
|         149|   -5.012072|   -7.491148|    0.824014|    0.012032|
|         150|   -5.010723|   -7.491471|    0.824015|    0.012033|
|         151|   -5.009624|   -7.491589|    0.824015|    0.012033|
|         152|   -5.008733|   -7.491564|    0.824016|    0.012034|
|         153|   -5.007997|   -7.491464|    0.824016|    0.012035|
|         154|   -5.007359|   -7.491363|    0.824016|    0.012035|
|         155|   -5.006774|   -7.491333|    0.824017|    0.012036|
|         156|   -5.006215|   -7.491441|    0.824017|    0.012036|
|         157|   -5.005672|   -7.491750|    0.824017|    0.012037|
|         158|   -5.005150|   -7.492312|    0.824017|    0.012037|
|         159|   -5.004664|   -7.493167|    0.824018|    0.012037|
|         160|   -5.004235|   -7.494341|    0.824018|    0.012038|
|         161|   -5.003882|   -7.495851|    0.824018|    0.012038|
|         162|   -5.003620|   -7.497702|    0.824018|    0.012038|
|         163|   -5.003462|   -7.499889|    0.824018|    0.012038|
|         164|   -5.003415|   -7.502395|    0.824018|    0.012038|
|         165|   -5.003481|   -7.505198|    0.824018|    0.012038|
|         166|   -5.003661|   -7.508266|    0.824019|    0.012038|
|         167|   -5.003955|   -7.511566|    0.824019|    0.012038|
|         168|   -5.004360|   -7.515061|    0.824019|    0.012038|
|         169|   -5.004871|   -7.518718|    0.824019|    0.012038|
|         170|   -5.005485|   -7.522505|    0.824019|    0.012038|
|         171|   -5.006192|   -7.526391|    0.824020|    0.012038|
|         172|   -5.006984|   -7.530355|    0.824020|    0.012038|
|         173|   -5.007847|   -7.534378|    0.824020|    0.012037|
|         174|   -5.008765|   -7.538445|    0.824021|    0.012037|
|         175|   -5.009720|   -7.542548|    0.824021|    0.012037|
|         176|   -5.010690|   -7.546679|    0.824022|    0.012036|
|         177|   -5.011655|   -7.550833|    0.824022|    0.012036|
|         178|   -5.012592|   -7.555003|    0.824023|    0.012036|
|         179|   -5.013483|   -7.559182|    0.824023|    0.012035|
|         180|   -5.014311|   -7.563360|    0.824023|    0.012035|
|         181|   -5.015065|   -7.567523|    0.824024|    0.012034|
|         182|   -5.015738|   -7.571654|    0.824024|    0.012034|
|         183|   -5.016332|   -7.575728|    0.824025|    0.012033|
|         184|   -5.016859|   -7.579721|    0.824025|    0.012033|
|         185|   -5.017335|   -7.583603|    0.824025|    0.012032|
|         186|   -5.017790|   -7.587341|    0.824025|    0.012032|
|         187|   -5.018259|   -7.590904|    0.824026|    0.012031|
|         188|   -5.018784|   -7.594260|    0.824026|    0.012030|
|         189|   -5.019415|   -7.597382|    0.824026|    0.012030|
|         190|   -5.020206|   -7.600249|    0.824026|    0.012029|
|         191|   -5.021213|   -7.602847|    0.824026|    0.012028|
|         192|   -5.022492|   -7.605170|    0.824026|    0.012028|
|         193|   -5.024100|   -7.607219|    0.824026|    0.012027|
|         194|   -5.026089|   -7.609008|    0.824026|    0.012026|
|         195|   -5.028508|   -7.610557|    0.824026|    0.012026|
|         196|   -5.031397|   -7.611895|    0.824026|    0.012025|
|         197|   -5.034791|   -7.613053|    0.824026|    0.012024|
|         198|   -5.038713|   -7.614070|    0.824026|    0.012023|
|         199|   -5.043177|   -7.614987|    0.824026|    0.012023|
|         200|   -5.048186|   -7.615849|    0.824026|    0.012022|
|         201|   -5.053727|   -7.616693|    0.824025|    0.012019|
+-----------------------------------------------------------------------+
|Fixed CL Mode                           |Value                         |
+-----------------------------------------------------------------------+
|Current CL                              |0.824025                      |
|Target CL                               |0.824                         |
|Previous AOA                            |2.78911                       |
|Changed AoA by                          |-0.00012784                   |
+-----------------------------------------------------------------------+
+----------------------------------------------------------------+
|  Inner_Iter|    rms[Rho]|     rms[nu]|          CL|          CD|
+----------------------------------------------------------------+
|         202|   -4.084531|   -7.601411|    0.824025|    0.012019|
|         203|   -4.459230|   -7.609847|    0.824025|    0.012018|
|         204|   -4.677914|   -7.612972|    0.824025|    0.012017|
|         205|   -4.739884|   -7.615169|    0.824025|    0.012017|
|         206|   -4.780844|   -7.617135|    0.824025|    0.012016|
|         207|   -4.833189|   -7.619048|    0.824025|    0.012015|
|         208|   -4.893768|   -7.620978|    0.824025|    0.012015|
|         209|   -4.950864|   -7.622958|    0.824025|    0.012014|
|         210|   -4.994900|   -7.624989|    0.824025|    0.012013|
|         211|   -5.024660|   -7.627038|    0.824026|    0.012013|
|         212|   -5.043869|   -7.629065|    0.824026|    0.012012|
|         213|   -5.055865|   -7.631033|    0.824026|    0.012012|
|         214|   -5.062903|   -7.632907|    0.824027|    0.012011|
|         215|   -5.067285|   -7.634674|    0.824027|    0.012011|
|         216|   -5.071329|   -7.636316|    0.824027|    0.012010|
|         217|   -5.076539|   -7.637808|    0.824028|    0.012010|
|         218|   -5.083131|   -7.639136|    0.824029|    0.012010|
|         219|   -5.090302|   -7.640287|    0.824029|    0.012009|
|         220|   -5.096952|   -7.641252|    0.824030|    0.012009|
|         221|   -5.102372|   -7.642030|    0.824031|    0.012009|
|         222|   -5.106521|   -7.642620|    0.824032|    0.012009|
|         223|   -5.109828|   -7.643020|    0.824032|    0.012009|
|         224|   -5.112803|   -7.643230|    0.824033|    0.012009|
|         225|   -5.115770|   -7.643258|    0.824034|    0.012009|
|         226|   -5.118830|   -7.643109|    0.824035|    0.012009|
|         227|   -5.121963|   -7.642803|    0.824036|    0.012009|
|         228|   -5.125130|   -7.642375|    0.824037|    0.012009|
|         229|   -5.128330|   -7.641865|    0.824039|    0.012009|
|         230|   -5.131605|   -7.641312|    0.824040|    0.012009|
|         231|   -5.135038|   -7.640748|    0.824041|    0.012009|
|         232|   -5.138748|   -7.640201|    0.824042|    0.012009|
|         233|   -5.142886|   -7.639699|    0.824043|    0.012010|
|         234|   -5.147618|   -7.639267|    0.824045|    0.012010|
|         235|   -5.153104|   -7.638917|    0.824046|    0.012010|
|         236|   -5.159466|   -7.638660|    0.824047|    0.012011|
|         237|   -5.166767|   -7.638501|    0.824049|    0.012011|
|         238|   -5.175005|   -7.638443|    0.824050|    0.012011|
|         239|   -5.184109|   -7.638483|    0.824051|    0.012012|
|         240|   -5.193951|   -7.638612|    0.824053|    0.012012|
|         241|   -5.204364|   -7.638815|    0.824054|    0.012013|
|         242|   -5.215160|   -7.639073|    0.824056|    0.012013|
|         243|   -5.226165|   -7.639364|    0.824057|    0.012014|
|         244|   -5.237241|   -7.639660|    0.824058|    0.012014|
|         245|   -5.248303|   -7.639941|    0.824059|    0.012015|
|         246|   -5.259323|   -7.640181|    0.824061|    0.012015|
|         247|   -5.270311|   -7.640360|    0.824062|    0.012016|
|         248|   -5.281290|   -7.640460|    0.824063|    0.012017|
|         249|   -5.292273|   -7.640463|    0.824064|    0.012017|
|         250|   -5.303235|   -7.640360|    0.824065|    0.012018|
|         251|   -5.314110|   -7.640146|    0.824066|    0.012018|
|         252|   -5.324788|   -7.639821|    0.824067|    0.012019|
|         253|   -5.335132|   -7.639398|    0.824067|    0.012019|
|         254|   -5.344998|   -7.638893|    0.824068|    0.012020|
|         255|   -5.354254|   -7.638328|    0.824068|    0.012020|
|         256|   -5.362796|   -7.637732|    0.824068|    0.012021|
|         257|   -5.370561|   -7.637141|    0.824069|    0.012021|
|         258|   -5.377526|   -7.636592|    0.824069|    0.012022|
|         259|   -5.383699|   -7.636133|    0.824069|    0.012022|
|         260|   -5.389114|   -7.635805|    0.824068|    0.012023|
|         261|   -5.393816|   -7.635652|    0.824068|    0.012023|
|         262|   -5.397853|   -7.635715|    0.824067|    0.012023|
|         263|   -5.401272|   -7.636030|    0.824067|    0.012024|
|         264|   -5.404116|   -7.636631|    0.824066|    0.012024|
|         265|   -5.406428|   -7.637543|    0.824065|    0.012024|
|         266|   -5.408248|   -7.638782|    0.824064|    0.012025|
|         267|   -5.409619|   -7.640356|    0.824063|    0.012025|
|         268|   -5.410588|   -7.642259|    0.824062|    0.012025|
|         269|   -5.411202|   -7.644478|    0.824060|    0.012025|
|         270|   -5.411511|   -7.646987|    0.824059|    0.012025|
|         271|   -5.411565|   -7.649745|    0.824057|    0.012026|
|         272|   -5.411411|   -7.652701|    0.824056|    0.012026|
|         273|   -5.411094|   -7.655793|    0.824054|    0.012026|
|         274|   -5.410657|   -7.658949|    0.824053|    0.012026|
|         275|   -5.410138|   -7.662089|    0.824051|    0.012026|
|         276|   -5.409572|   -7.665132|    0.824049|    0.012026|
|         277|   -5.408991|   -7.667992|    0.824048|    0.012026|
|         278|   -5.408425|   -7.670592|    0.824046|    0.012026|
|         279|   -5.407902|   -7.672859|    0.824045|    0.012026|
|         280|   -5.407445|   -7.674736|    0.824043|    0.012026|
|         281|   -5.407079|   -7.676179|    0.824042|    0.012026|
|         282|   -5.406821|   -7.677166|    0.824040|    0.012026|
|         283|   -5.406691|   -7.677702|    0.824039|    0.012025|
|         284|   -5.406701|   -7.677803|    0.824038|    0.012025|
|         285|   -5.406863|   -7.677509|    0.824037|    0.012025|
|         286|   -5.407185|   -7.676876|    0.824036|    0.012025|
|         287|   -5.407672|   -7.675975|    0.824035|    0.012025|
|         288|   -5.408326|   -7.674889|    0.824034|    0.012024|
|         289|   -5.409146|   -7.673704|    0.824033|    0.012024|
|         290|   -5.410128|   -7.672508|    0.824033|    0.012024|
|         291|   -5.411268|   -7.671388|    0.824032|    0.012024|
|         292|   -5.412558|   -7.670425|    0.824031|    0.012023|
|         293|   -5.413988|   -7.669688|    0.824031|    0.012023|
|         294|   -5.415548|   -7.669240|    0.824031|    0.012023|
|         295|   -5.417228|   -7.669130|    0.824031|    0.012022|
|         296|   -5.419017|   -7.669397|    0.824030|    0.012022|
|         297|   -5.420903|   -7.670067|    0.824030|    0.012022|
|         298|   -5.422878|   -7.671153|    0.824030|    0.012021|
|         299|   -5.424932|   -7.672659|    0.824030|    0.012021|
|         300|   -5.427058|   -7.674578|    0.824031|    0.012021|
|         301|   -5.429249|   -7.676894|    0.824031|    0.012018|
+-----------------------------------------------------------------------+
|Fixed CL Mode                           |Value                         |
+-----------------------------------------------------------------------+
|Current CL                              |0.824031                      |
|Target CL                               |0.824                         |
|Previous AOA                            |2.78899                       |
|Changed AoA by                          |-0.000152576                  |
+-----------------------------------------------------------------------+
+----------------------------------------------------------------+
|  Inner_Iter|    rms[Rho]|     rms[nu]|          CL|          CD|
+----------------------------------------------------------------+
|         302|   -4.009522|   -7.650808|    0.824031|    0.012018|
|         303|   -4.391950|   -7.667634|    0.824031|    0.012017|
|         304|   -4.630581|   -7.675196|    0.824032|    0.012017|
|         305|   -4.706054|   -7.681087|    0.824032|    0.012017|
|         306|   -4.757322|   -7.686470|    0.824032|    0.012016|
|         307|   -4.823387|   -7.691600|    0.824033|    0.012016|
|         308|   -4.903711|   -7.696552|    0.824033|    0.012015|
|         309|   -4.985517|   -7.701369|    0.824034|    0.012015|
|         310|   -5.054018|   -7.706070|    0.824035|    0.012015|
|         311|   -5.103166|   -7.710644|    0.824035|    0.012014|
|         312|   -5.135558|   -7.715078|    0.824036|    0.012014|
|         313|   -5.154967|   -7.719383|    0.824036|    0.012014|
|         314|   -5.164648|   -7.723586|    0.824037|    0.012013|
|         315|   -5.169191|   -7.727703|    0.824038|    0.012013|
|         316|   -5.173811|   -7.731728|    0.824038|    0.012013|
|         317|   -5.182088|   -7.735643|    0.824039|    0.012012|
|         318|   -5.194893|   -7.739440|    0.824040|    0.012012|
|         319|   -5.210842|   -7.743126|    0.824040|    0.012012|
|         320|   -5.227588|   -7.746721|    0.824041|    0.012012|
|         321|   -5.243277|   -7.750242|    0.824042|    0.012011|
|         322|   -5.257405|   -7.753707|    0.824043|    0.012011|
|         323|   -5.270606|   -7.757124|    0.824043|    0.012011|
|         324|   -5.283785|   -7.760496|    0.824044|    0.012011|
|         325|   -5.297382|   -7.763831|    0.824045|    0.012011|
|         326|   -5.311177|   -7.767143|    0.824046|    0.012010|
|         327|   -5.324528|   -7.770448|    0.824046|    0.012010|
|         328|   -5.336706|   -7.773769|    0.824047|    0.012010|
|         329|   -5.347151|   -7.777128|    0.824048|    0.012010|
|         330|   -5.355571|   -7.780549|    0.824049|    0.012010|
|         331|   -5.361970|   -7.784053|    0.824049|    0.012010|
|         332|   -5.366640|   -7.787657|    0.824050|    0.012010|
|         333|   -5.370108|   -7.791373|    0.824051|    0.012010|
|         334|   -5.373019|   -7.795206|    0.824051|    0.012010|
|         335|   -5.375993|   -7.799155|    0.824052|    0.012010|
|         336|   -5.379482|   -7.803209|    0.824053|    0.012010|
|         337|   -5.383701|   -7.807354|    0.824054|    0.012010|
|         338|   -5.388611|   -7.811570|    0.824054|    0.012010|
|         339|   -5.393949|   -7.815838|    0.824055|    0.012010|
|         340|   -5.399292|   -7.820134|    0.824055|    0.012010|
|         341|   -5.404152|   -7.824435|    0.824056|    0.012010|
|         342|   -5.408086|   -7.828718|    0.824057|    0.012011|
|         343|   -5.410806|   -7.832962|    0.824057|    0.012011|
|         344|   -5.412260|   -7.837147|    0.824058|    0.012011|
|         345|   -5.412633|   -7.841255|    0.824058|    0.012011|
|         346|   -5.412289|   -7.845266|    0.824058|    0.012011|
|         347|   -5.411661|   -7.849164|    0.824059|    0.012012|
|         348|   -5.411143|   -7.852933|    0.824059|    0.012012|
|         349|   -5.411019|   -7.856558|    0.824059|    0.012012|
|         350|   -5.411432|   -7.860024|    0.824060|    0.012012|
|         351|   -5.412388|   -7.863318|    0.824060|    0.012013|
|         352|   -5.413798|   -7.866430|    0.824060|    0.012013|
|         353|   -5.415519|   -7.869351|    0.824060|    0.012013|
|         354|   -5.417405|   -7.872079|    0.824060|    0.012013|
|         355|   -5.419346|   -7.874613|    0.824060|    0.012014|
|         356|   -5.421282|   -7.876957|    0.824059|    0.012014|
|         357|   -5.423216|   -7.879121|    0.824059|    0.012014|
|         358|   -5.425197|   -7.881124|    0.824059|    0.012015|
|         359|   -5.427304|   -7.882990|    0.824058|    0.012015|
|         360|   -5.429626|   -7.884750|    0.824057|    0.012015|
|         361|   -5.432242|   -7.886440|    0.824057|    0.012015|
|         362|   -5.435216|   -7.888103|    0.824056|    0.012016|
|         363|   -5.438588|   -7.889784|    0.824055|    0.012016|
|         364|   -5.442378|   -7.891531|    0.824054|    0.012016|
|         365|   -5.446591|   -7.893393|    0.824053|    0.012016|
|         366|   -5.451221|   -7.895417|    0.824052|    0.012017|
|         367|   -5.456258|   -7.897653|    0.824051|    0.012017|
|         368|   -5.461691|   -7.900144|    0.824050|    0.012017|
|         369|   -5.467507|   -7.902932|    0.824049|    0.012017|
|         370|   -5.473695|   -7.906049|    0.824048|    0.012017|
|         371|   -5.480240|   -7.909520|    0.824046|    0.012017|
|         372|   -5.487126|   -7.913362|    0.824045|    0.012018|
|         373|   -5.494328|   -7.917582|    0.824044|    0.012018|
|         374|   -5.501819|   -7.922177|    0.824042|    0.012018|
|         375|   -5.509560|   -7.927130|    0.824041|    0.012018|
|         376|   -5.517507|   -7.932412|    0.824040|    0.012018|
|         377|   -5.525608|   -7.937980|    0.824038|    0.012018|
|         378|   -5.533806|   -7.943778|    0.824037|    0.012018|
|         379|   -5.542035|   -7.949739|    0.824036|    0.012018|
|         380|   -5.550228|   -7.955782|    0.824035|    0.012018|
|         381|   -5.558310|   -7.961818|    0.824034|    0.012018|
|         382|   -5.566208|   -7.967753|    0.824032|    0.012018|
|         383|   -5.573845|   -7.973484|    0.824031|    0.012018|
|         384|   -5.581145|   -7.978910|    0.824030|    0.012018|
|         385|   -5.588038|   -7.983932|    0.824029|    0.012018|
|         386|   -5.594456|   -7.988455|    0.824028|    0.012018|
|         387|   -5.600342|   -7.992405|    0.824027|    0.012018|
|         388|   -5.605646|   -7.995727|    0.824027|    0.012018|
|         389|   -5.610330|   -7.998391|    0.824026|    0.012018|
|         390|   -5.614372|   -8.000394|    0.824025|    0.012018|
|         391|   -5.617759|   -8.001761|    0.824025|    0.012018|
|         392|   -5.620494|   -8.002542|    0.824024|    0.012018|
|         393|   -5.622593|   -8.002811|    0.824024|    0.012018|
|         394|   -5.624082|   -8.002660|    0.824023|    0.012018|
|         395|   -5.624998|   -8.002194|    0.824023|    0.012017|
|         396|   -5.625386|   -8.001524|    0.824022|    0.012017|
|         397|   -5.625295|   -8.000763|    0.824022|    0.012017|
|         398|   -5.624781|   -8.000022|    0.824022|    0.012017|
|         399|   -5.623899|   -7.999404|    0.824022|    0.012017|
|         400|   -5.622706|   -7.999001|    0.824021|    0.012017|
|         401|   -5.621256|   -7.998893|    0.824021|    0.012015|
+-----------------------------------------------------------------------+
|Fixed CL Mode                           |Value                         |
+-----------------------------------------------------------------------+
|Current CL                              |0.824021                      |
|Target CL                               |0.824                         |
|Previous AOA                            |2.78883                       |
|Changed AoA by                          |-0.000107344                  |
+-----------------------------------------------------------------------+
+----------------------------------------------------------------+
|  Inner_Iter|    rms[Rho]|     rms[nu]|          CL|          CD|
+----------------------------------------------------------------+
|         402|   -4.162483|   -7.942480|    0.824021|    0.012015|
|         403|   -4.545903|   -7.970322|    0.824021|    0.012014|
|         404|   -4.785993|   -7.980195|    0.824021|    0.012014|
|         405|   -4.861297|   -7.986651|    0.824021|    0.012014|
|         406|   -4.912111|   -7.992064|    0.824021|    0.012014|
|         407|   -4.977989|   -7.997026|    0.824022|    0.012014|
|         408|   -5.058356|   -8.001778|    0.824022|    0.012013|
|         409|   -5.140252|   -8.006482|    0.824022|    0.012013|
|         410|   -5.208634|   -8.011243|    0.824022|    0.012013|
|         411|   -5.257338|   -8.016083|    0.824022|    0.012013|
|         412|   -5.289048|   -8.021004|    0.824023|    0.012012|
|         413|   -5.307679|   -8.026035|    0.824023|    0.012012|
|         414|   -5.316575|   -8.031226|    0.824023|    0.012012|
|         415|   -5.320343|   -8.036581|    0.824023|    0.012012|
|         416|   -5.324150|   -8.042051|    0.824024|    0.012012|
|         417|   -5.331514|   -8.047545|    0.824024|    0.012011|
|         418|   -5.343266|   -8.052974|    0.824024|    0.012011|
|         419|   -5.358046|   -8.058269|    0.824024|    0.012011|
|         420|   -5.373603|   -8.063381|    0.824025|    0.012011|
|         421|   -5.388220|   -8.068255|    0.824025|    0.012011|
|         422|   -5.401498|   -8.072835|    0.824025|    0.012011|
|         423|   -5.414109|   -8.077045|    0.824025|    0.012010|
|         424|   -5.426937|   -8.080817|    0.824025|    0.012010|
|         425|   -5.440378|   -8.084095|    0.824026|    0.012010|
|         426|   -5.454178|   -8.086845|    0.824026|    0.012010|
|         427|   -5.467670|   -8.089058|    0.824026|    0.012010|
|         428|   -5.480122|   -8.090756|    0.824026|    0.012010|
|         429|   -5.490989|   -8.091988|    0.824026|    0.012010|
|         430|   -5.500024|   -8.092813|    0.824026|    0.012010|
|         431|   -5.507303|   -8.093303|    0.824027|    0.012010|
|         432|   -5.513198|   -8.093535|    0.824027|    0.012010|
|         433|   -5.518316|   -8.093583|    0.824027|    0.012010|
|         434|   -5.523368|   -8.093513|    0.824027|    0.012010|
|         435|   -5.529025|   -8.093380|    0.824027|    0.012010|
|         436|   -5.535779|   -8.093227|    0.824027|    0.012010|
|         437|   -5.543875|   -8.093088|    0.824027|    0.012010|
|         438|   -5.553281|   -8.092988|    0.824027|    0.012010|
|         439|   -5.563712|   -8.092941|    0.824027|    0.012010|
|         440|   -5.574673|   -8.092958|    0.824027|    0.012010|
|         441|   -5.585545|   -8.093044|    0.824027|    0.012010|
|         442|   -5.595698|   -8.093199|    0.824027|    0.012010|
|         443|   -5.604630|   -8.093422|    0.824027|    0.012010|
|         444|   -5.612089|   -8.093707|    0.824027|    0.012010|
|         445|   -5.618128|   -8.094045|    0.824027|    0.012010|
|         446|   -5.623060|   -8.094421|    0.824027|    0.012011|
|         447|   -5.627345|   -8.094815|    0.824026|    0.012011|
|         448|   -5.631446|   -8.095203|    0.824026|    0.012011|
|         449|   -5.635715|   -8.095554|    0.824026|    0.012011|
|         450|   -5.640326|   -8.095830|    0.824026|    0.012011|
|         451|   -5.645272|   -8.095991|    0.824026|    0.012011|
|         452|   -5.650392|   -8.095993|    0.824026|    0.012012|
|         453|   -5.655440|   -8.095797|    0.824025|    0.012012|
|         454|   -5.660151|   -8.095360|    0.824025|    0.012012|
|         455|   -5.664303|   -8.094644|    0.824025|    0.012012|
|         456|   -5.667759|   -8.093618|    0.824024|    0.012012|
|         457|   -5.670485|   -8.092263|    0.824024|    0.012013|
|         458|   -5.672536|   -8.090567|    0.824024|    0.012013|
|         459|   -5.674027|   -8.088537|    0.824023|    0.012013|
|         460|   -5.675101|   -8.086188|    0.824023|    0.012013|
|         461|   -5.675895|   -8.083553|    0.824022|    0.012014|
|         462|   -5.676522|   -8.080673|    0.824022|    0.012014|
|         463|   -5.677064|   -8.077607|    0.824021|    0.012014|
|         464|   -5.677576|   -8.074418|    0.824020|    0.012014|
|         465|   -5.678092|   -8.071179|    0.824020|    0.012014|
|         466|   -5.678636|   -8.067968|    0.824019|    0.012015|
|         467|   -5.679229|   -8.064865|    0.824018|    0.012015|
|         468|   -5.679892|   -8.061948|    0.824018|    0.012015|
|         469|   -5.680655|   -8.059291|    0.824017|    0.012015|
|         470|   -5.681547|   -8.056965|    0.824016|    0.012015|
|         471|   -5.682599|   -8.055033|    0.824015|    0.012016|
|         472|   -5.683844|   -8.053547|    0.824014|    0.012016|
|         473|   -5.685307|   -8.052551|    0.824014|    0.012016|
|         474|   -5.687012|   -8.052074|    0.824013|    0.012016|
|         475|   -5.688978|   -8.052135|    0.824012|    0.012016|
|         476|   -5.691218|   -8.052740|    0.824011|    0.012016|
|         477|   -5.693743|   -8.053879|    0.824010|    0.012016|
|         478|   -5.696561|   -8.055531|    0.824009|    0.012017|
|         479|   -5.699675|   -8.057660|    0.824009|    0.012017|
|         480|   -5.703090|   -8.060217|    0.824008|    0.012017|
|         481|   -5.706806|   -8.063140|    0.824007|    0.012017|
|         482|   -5.710821|   -8.066358|    0.824006|    0.012017|
|         483|   -5.715133|   -8.069787|    0.824006|    0.012017|
|         484|   -5.719736|   -8.073341|    0.824005|    0.012017|
|         485|   -5.724621|   -8.076926|    0.824004|    0.012017|
|         486|   -5.729777|   -8.080450|    0.824004|    0.012017|
|         487|   -5.735191|   -8.083824|    0.824003|    0.012017|
|         488|   -5.740846|   -8.086968|    0.824003|    0.012017|
|         489|   -5.746722|   -8.089812|    0.824002|    0.012017|
|         490|   -5.752798|   -8.092307|    0.824002|    0.012017|
|         491|   -5.759045|   -8.094418|    0.824002|    0.012017|
|         492|   -5.765436|   -8.096134|    0.824001|    0.012017|
|         493|   -5.771935|   -8.097465|    0.824001|    0.012017|
|         494|   -5.778507|   -8.098442|    0.824001|    0.012017|
|         495|   -5.785109|   -8.099110|    0.824000|    0.012017|
|         496|   -5.791696|   -8.099533|    0.824000|    0.012016|
|         497|   -5.798221|   -8.099781|    0.824000|    0.012016|
|         498|   -5.804632|   -8.099932|    0.824000|    0.012016|
|         499|   -5.810874|   -8.100066|    0.824000|    0.012016|
|         500|   -5.816894|   -8.100257|    0.824000|    0.012016|
|         501|   -5.822634|   -8.100578|    0.824000|    0.012016|
|         502|   -5.828041|   -8.101090|    0.824000|    0.012016|
|         503|   -5.833062|   -8.101845|    0.824000|    0.012015|
|         504|   -5.837650|   -8.102883|    0.824000|    0.012015|
|         505|   -5.841761|   -8.104230|    0.824000|    0.012015|
|         506|   -5.845361|   -8.105904|    0.824000|    0.012015|
|         507|   -5.848423|   -8.107905|    0.824000|    0.012015|
|         508|   -5.850930|   -8.110225|    0.824000|    0.012014|
|         509|   -5.852878|   -8.112845|    0.824001|    0.012014|
|         510|   -5.854270|   -8.115735|    0.824001|    0.012014|
|         511|   -5.855124|   -8.118858|    0.824001|    0.012014|
|         512|   -5.855464|   -8.122171|    0.824001|    0.012013|
|         513|   -5.855328|   -8.125626|    0.824001|    0.012013|
|         514|   -5.854759|   -8.129171|    0.824001|    0.012013|
|         515|   -5.853807|   -8.132757|    0.824002|    0.012013|
|         516|   -5.852531|   -8.136334|    0.824002|    0.012013|
|         517|   -5.850987|   -8.139856|    0.824002|    0.012012|
|         518|   -5.849239|   -8.143281|    0.824002|    0.012012|
|         519|   -5.847347|   -8.146576|    0.824002|    0.012012|
|         520|   -5.845373|   -8.149714|    0.824002|    0.012012|
|         521|   -5.843375|   -8.152676|    0.824002|    0.012012|
|         522|   -5.841411|   -8.155453|    0.824003|    0.012011|
|         523|   -5.839532|   -8.158043|    0.824003|    0.012011|
|         524|   -5.837788|   -8.160453|    0.824003|    0.012011|
|         525|   -5.836224|   -8.162693|    0.824003|    0.012011|
|         526|   -5.834879|   -8.164781|    0.824003|    0.012011|
|         527|   -5.833791|   -8.166738|    0.824003|    0.012011|
|         528|   -5.832990|   -8.168587|    0.824003|    0.012010|
|         529|   -5.832505|   -8.170352|    0.824003|    0.012010|
|         530|   -5.832359|   -8.172054|    0.824003|    0.012010|
|         531|   -5.832572|   -8.173716|    0.824003|    0.012010|
|         532|   -5.833160|   -8.175355|    0.824003|    0.012010|
|         533|   -5.834136|   -8.176988|    0.824003|    0.012010|
|         534|   -5.835509|   -8.178627|    0.824003|    0.012010|
|         535|   -5.837283|   -8.180282|    0.824003|    0.012010|
|         536|   -5.839462|   -8.181958|    0.824003|    0.012010|
|         537|   -5.842045|   -8.183661|    0.824003|    0.012010|
|         538|   -5.845027|   -8.185391|    0.824003|    0.012010|
|         539|   -5.848400|   -8.187150|    0.824003|    0.012010|
|         540|   -5.852155|   -8.188938|    0.824003|    0.012010|
|         541|   -5.856276|   -8.190756|    0.824002|    0.012010|
|         542|   -5.860746|   -8.192604|    0.824002|    0.012010|
|         543|   -5.865544|   -8.194484|    0.824002|    0.012010|
|         544|   -5.870644|   -8.196399|    0.824002|    0.012010|
|         545|   -5.876018|   -8.198354|    0.824002|    0.012010|
|         546|   -5.881633|   -8.200354|    0.824002|    0.012010|
|         547|   -5.887452|   -8.202405|    0.824002|    0.012010|
|         548|   -5.893434|   -8.204512|    0.824002|    0.012010|
|         549|   -5.899536|   -8.206681|    0.824002|    0.012010|
|         550|   -5.905710|   -8.208916|    0.824002|    0.012010|
|         551|   -5.911905|   -8.211217|    0.824002|    0.012010|
|         552|   -5.918067|   -8.213583|    0.824002|    0.012010|
|         553|   -5.924141|   -8.216006|    0.824002|    0.012011|
|         554|   -5.930071|   -8.218477|    0.824002|    0.012011|
|         555|   -5.935799|   -8.220977|    0.824002|    0.012011|
|         556|   -5.941269|   -8.223485|    0.824002|    0.012011|
|         557|   -5.946429|   -8.225972|    0.824002|    0.012011|
|         558|   -5.951228|   -8.228405|    0.824002|    0.012012|
|         559|   -5.955621|   -8.230745|    0.824002|    0.012012|
|         560|   -5.959570|   -8.232951|    0.824003|    0.012012|
|         561|   -5.963046|   -8.234979|    0.824003|    0.012012|
|         562|   -5.966026|   -8.236787|    0.824003|    0.012012|
|         563|   -5.968497|   -8.238331|    0.824003|    0.012013|
|         564|   -5.970459|   -8.239573|    0.824003|    0.012013|
|         565|   -5.971918|   -8.240484|    0.824003|    0.012013|
|         566|   -5.972892|   -8.241038|    0.824003|    0.012013|
|         567|   -5.973408|   -8.241223|    0.824003|    0.012014|
|         568|   -5.973499|   -8.241035|    0.824003|    0.012014|
|         569|   -5.973207|   -8.240486|    0.824003|    0.012014|
|         570|   -5.972577|   -8.239594|    0.824003|    0.012015|
|         571|   -5.971661|   -8.238391|    0.824002|    0.012015|
|         572|   -5.970511|   -8.236918|    0.824002|    0.012015|
|         573|   -5.969181|   -8.235222|    0.824002|    0.012015|
|         574|   -5.967726|   -8.233356|    0.824002|    0.012016|
|         575|   -5.966200|   -8.231377|    0.824002|    0.012016|
|         576|   -5.964653|   -8.229341|    0.824002|    0.012016|
|         577|   -5.963137|   -8.227305|    0.824002|    0.012016|
|         578|   -5.961696|   -8.225319|    0.824001|    0.012016|
|         579|   -5.960376|   -8.223432|    0.824001|    0.012017|
|         580|   -5.959216|   -8.221685|    0.824001|    0.012017|
|         581|   -5.958252|   -8.220112|    0.824001|    0.012017|
|         582|   -5.957519|   -8.218740|    0.824000|    0.012017|
|         583|   -5.957045|   -8.217587|    0.824000|    0.012017|
|         584|   -5.956858|   -8.216663|    0.824000|    0.012018|
|         585|   -5.956981|   -8.215973|    0.824000|    0.012018|
|         586|   -5.957434|   -8.215510|    0.823999|    0.012018|
|         587|   -5.958233|   -8.215263|    0.823999|    0.012018|
|         588|   -5.959392|   -8.215216|    0.823998|    0.012018|
|         589|   -5.960924|   -8.215344|    0.823998|    0.012018|
|         590|   -5.962835|   -8.215622|    0.823998|    0.012018|
|         591|   -5.965132|   -8.216019|    0.823997|    0.012018|
|         592|   -5.967817|   -8.216504|    0.823997|    0.012018|
|         593|   -5.970888|   -8.217044|    0.823997|    0.012019|
|         594|   -5.974343|   -8.217606|    0.823996|    0.012019|
|         595|   -5.978175|   -8.218161|    0.823996|    0.012019|
|         596|   -5.982373|   -8.218680|    0.823996|    0.012019|
|         597|   -5.986923|   -8.219140|    0.823995|    0.012019|
|         598|   -5.991807|   -8.219520|    0.823995|    0.012019|
|         599|   -5.997003|   -8.219805|    0.823994|    0.012019|
|         600|   -6.002484|   -8.219986|    0.823994|    0.012019|
|         601|   -6.008219|   -8.220056|    0.823994|    0.012019|
+-----------------------------------------------------------------------+
|Fixed CL Mode                           |Value                         |
+-----------------------------------------------------------------------+
|Current CL                              |0.823994                      |
|Target CL                               |0.824                         |
|Previous AOA                            |2.78873                       |
|Changed AoA by                          |2.94937e-05                   |
+-----------------------------------------------------------------------+
+----------------------------------------------------------------+
|  Inner_Iter|    rms[Rho]|     rms[nu]|          CL|          CD|
+----------------------------------------------------------------+
|         602|   -4.722789|   -8.206373|    0.823993|    0.012019|
|         603|   -5.103017|   -8.212870|    0.823993|    0.012019|
|         604|   -5.338022|   -8.214626|    0.823993|    0.012019|
|         605|   -5.413378|   -8.215369|    0.823993|    0.012019|
|         606|   -5.465285|   -8.215696|    0.823992|    0.012019|
|         607|   -5.531154|   -8.215782|    0.823992|    0.012018|
|         608|   -5.609991|   -8.215712|    0.823992|    0.012018|
|         609|   -5.688805|   -8.215544|    0.823991|    0.012018|
|         610|   -5.753190|   -8.215316|    0.823991|    0.012018|
|         611|   -5.798044|   -8.215050|    0.823991|    0.012018|
|         612|   -5.826739|   -8.214761|    0.823991|    0.012018|
|         613|   -5.843470|   -8.214470|    0.823991|    0.012018|
|         614|   -5.851579|   -8.214202|    0.823990|    0.012017|
|         615|   -5.855292|   -8.213976|    0.823990|    0.012017|
|         616|   -5.859200|   -8.213803|    0.823990|    0.012017|
|         617|   -5.866363|   -8.213686|    0.823990|    0.012017|
|         618|   -5.877378|   -8.213630|    0.823990|    0.012017|
|         619|   -5.890816|   -8.213644|    0.823990|    0.012017|
|         620|   -5.904426|   -8.213737|    0.823989|    0.012016|
|         621|   -5.916466|   -8.213919|    0.823989|    0.012016|
|         622|   -5.926445|   -8.214195|    0.823989|    0.012016|
|         623|   -5.934905|   -8.214567|    0.823989|    0.012016|
|         624|   -5.942647|   -8.215033|    0.823989|    0.012016|
|         625|   -5.950120|   -8.215594|    0.823989|    0.012015|
|         626|   -5.957292|   -8.216248|    0.823989|    0.012015|
|         627|   -5.963846|   -8.216996|    0.823989|    0.012015|
|         628|   -5.969444|   -8.217838|    0.823989|    0.012015|
|         629|   -5.973871|   -8.218773|    0.823989|    0.012015|
|         630|   -5.977070|   -8.219803|    0.823989|    0.012015|
|         631|   -5.979136|   -8.220928|    0.823989|    0.012014|
|         632|   -5.980301|   -8.222147|    0.823989|    0.012014|
|         633|   -5.980917|   -8.223461|    0.823989|    0.012014|
|         634|   -5.981394|   -8.224870|    0.823989|    0.012014|
|         635|   -5.982128|   -8.226376|    0.823989|    0.012014|
|         636|   -5.983427|   -8.227980|    0.823990|    0.012014|
|         637|   -5.985463|   -8.229684|    0.823990|    0.012013|
|         638|   -5.988270|   -8.231491|    0.823990|    0.012013|
|         639|   -5.991753|   -8.233406|    0.823990|    0.012013|
|         640|   -5.995728|   -8.235436|    0.823990|    0.012013|
|         641|   -5.999964|   -8.237588|    0.823990|    0.012013|
|         642|   -6.004243|   -8.239871|    0.823991|    0.012013|
|         643|   -6.008407|   -8.242295|    0.823991|    0.012013|
|         644|   -6.012405|   -8.244871|    0.823991|    0.012013|
|         645|   -6.016296|   -8.247611|    0.823991|    0.012013|
|         646|   -6.020236|   -8.250528|    0.823992|    0.012013|
|         647|   -6.024424|   -8.253632|    0.823992|    0.012012|
|         648|   -6.029054|   -8.256937|    0.823992|    0.012012|
|         649|   -6.034268|   -8.260453|    0.823992|    0.012012|
|         650|   -6.040133|   -8.264190|    0.823993|    0.012012|
|         651|   -6.046633|   -8.268159|    0.823993|    0.012012|
|         652|   -6.053684|   -8.272367|    0.823994|    0.012012|
|         653|   -6.061157|   -8.276822|    0.823994|    0.012012|
|         654|   -6.068905|   -8.281529|    0.823994|    0.012012|
|         655|   -6.076792|   -8.286494|    0.823995|    0.012012|
|         656|   -6.084708|   -8.291720|    0.823995|    0.012012|
|         657|   -6.092578|   -8.297211|    0.823995|    0.012012|
|         658|   -6.100362|   -8.302964|    0.823996|    0.012013|
|         659|   -6.108045|   -8.308978|    0.823996|    0.012013|
|         660|   -6.115622|   -8.315248|    0.823997|    0.012013|
|         661|   -6.123088|   -8.321767|    0.823997|    0.012013|
|         662|   -6.130423|   -8.328526|    0.823998|    0.012013|
|         663|   -6.137594|   -8.335512|    0.823998|    0.012013|
|         664|   -6.144552|   -8.342708|    0.823999|    0.012013|
|         665|   -6.151236|   -8.350095|    0.823999|    0.012013|
|         666|   -6.157581|   -8.357651|    0.823999|    0.012013|
|         667|   -6.163524|   -8.365349|    0.824000|    0.012013|
|         668|   -6.169007|   -8.373158|    0.824000|    0.012014|
|         669|   -6.173984|   -8.381044|    0.824001|    0.012014|
|         670|   -6.178421|   -8.388971|    0.824001|    0.012014|
|         671|   -6.182297|   -8.396898|    0.824001|    0.012014|
|         672|   -6.185601|   -8.404785|    0.824002|    0.012014|
|         673|   -6.188334|   -8.412588|    0.824002|    0.012014|
|         674|   -6.190507|   -8.420265|    0.824002|    0.012014|
|         675|   -6.192142|   -8.427773|    0.824003|    0.012015|
|         676|   -6.193270|   -8.435072|    0.824003|    0.012015|
|         677|   -6.193928|   -8.442127|    0.824003|    0.012015|
|         678|   -6.194164|   -8.448905|    0.824004|    0.012015|
|         679|   -6.194032|   -8.455381|    0.824004|    0.012015|
|         680|   -6.193591|   -8.461540|    0.824004|    0.012015|
|         681|   -6.192905|   -8.467369|    0.824004|    0.012016|
|         682|   -6.192036|   -8.472869|    0.824004|    0.012016|
|         683|   -6.191052|   -8.478048|    0.824004|    0.012016|
|         684|   -6.190015|   -8.482921|    0.824004|    0.012016|
|         685|   -6.188988|   -8.487512|    0.824004|    0.012016|
|         686|   -6.188027|   -8.491853|    0.824004|    0.012016|
|         687|   -6.187186|   -8.495981|    0.824004|    0.012016|
|         688|   -6.186515|   -8.499938|    0.824004|    0.012017|
|         689|   -6.186057|   -8.503769|    0.824004|    0.012017|
|         690|   -6.185852|   -8.507519|    0.824004|    0.012017|
|         691|   -6.185931|   -8.511235|    0.824004|    0.012017|
|         692|   -6.186324|   -8.514961|    0.824004|    0.012017|
|         693|   -6.187052|   -8.518737|    0.824004|    0.012017|
|         694|   -6.188133|   -8.522601|    0.824004|    0.012017|
|         695|   -6.189579|   -8.526582|    0.824003|    0.012018|
|         696|   -6.191398|   -8.530707|    0.824003|    0.012018|
|         697|   -6.193591|   -8.534994|    0.824003|    0.012018|
|         698|   -6.196155|   -8.539454|    0.824003|    0.012018|
|         699|   -6.199082|   -8.544091|    0.824003|    0.012018|
|         700|   -6.202361|   -8.548901|    0.824002|    0.012018|
|         701|   -6.205974|   -8.553872|    0.824002|    0.012018|
+-----------------------------------------------------------------------+
|Fixed CL Mode                           |Value                         |
+-----------------------------------------------------------------------+
|Current CL                              |0.824002                      |
|Target CL                               |0.824                         |
|Previous AOA                            |2.78875                       |
|Changed AoA by                          |-1.14247e-05                  |
+-----------------------------------------------------------------------+
+----------------------------------------------------------------+
|  Inner_Iter|    rms[Rho]|     rms[nu]|          CL|          CD|
+----------------------------------------------------------------+
|         702|   -5.134545|   -8.550844|    0.824002|    0.012018|
|         703|   -5.517268|   -8.560494|    0.824001|    0.012018|
|         704|   -5.759017|   -8.566906|    0.824001|    0.012018|
|         705|   -5.834283|   -8.572773|    0.824001|    0.012018|
|         706|   -5.880171|   -8.578477|    0.824001|    0.012018|
|         707|   -5.935948|   -8.584043|    0.824000|    0.012018|
|         708|   -5.999391|   -8.589417|    0.824000|    0.012018|
|         709|   -6.057020|   -8.594530|    0.824000|    0.012018|
|         710|   -6.097818|   -8.599324|    0.823999|    0.012018|
|         711|   -6.121739|   -8.603746|    0.823999|    0.012018|
|         712|   -6.134688|   -8.607768|    0.823999|    0.012018|
|         713|   -6.141314|   -8.611380|    0.823998|    0.012018|
|         714|   -6.144408|   -8.614588|    0.823998|    0.012018|
|         715|   -6.146473|   -8.617401|    0.823998|    0.012018|
|         716|   -6.149809|   -8.619827|    0.823998|    0.012018|
|         717|   -6.155714|   -8.621868|    0.823997|    0.012018|
|         718|   -6.164056|   -8.623533|    0.823997|    0.012018|
|         719|   -6.173588|   -8.624838|    0.823997|    0.012018|
|         720|   -6.182747|   -8.625808|    0.823997|    0.012018|
|         721|   -6.190470|   -8.626470|    0.823997|    0.012018|
|         722|   -6.196560|   -8.626856|    0.823996|    0.012018|
|         723|   -6.201476|   -8.626999|    0.823996|    0.012018|
|         724|   -6.205835|   -8.626935|    0.823996|    0.012018|
|         725|   -6.210044|   -8.626704|    0.823996|    0.012017|
|         726|   -6.214209|   -8.626351|    0.823996|    0.012017|
|         727|   -6.218231|   -8.625918|    0.823996|    0.012017|
|         728|   -6.221939|   -8.625448|    0.823995|    0.012017|
|         729|   -6.225174|   -8.624984|    0.823995|    0.012017|
|         730|   -6.227829|   -8.624564|    0.823995|    0.012017|
|         731|   -6.229871|   -8.624226|    0.823995|    0.012017|
|         732|   -6.231358|   -8.624004|    0.823995|    0.012017|
|         733|   -6.232442|   -8.623926|    0.823995|    0.012017|
|         734|   -6.233341|   -8.624018|    0.823995|    0.012016|
|         735|   -6.234293|   -8.624301|    0.823995|    0.012016|
|         736|   -6.235507|   -8.624795|    0.823995|    0.012016|
|         737|   -6.237121|   -8.625512|    0.823995|    0.012016|
|         738|   -6.239191|   -8.626459|    0.823995|    0.012016|
|         739|   -6.241693|   -8.627641|    0.823995|    0.012016|
|         740|   -6.244538|   -8.629061|    0.823995|    0.012016|
|         741|   -6.247601|   -8.630716|    0.823995|    0.012016|
|         742|   -6.250754|   -8.632605|    0.823995|    0.012016|
|         743|   -6.253898|   -8.634720|    0.823995|    0.012015|
|         744|   -6.256980|   -8.637052|    0.823995|    0.012015|
|         745|   -6.260011|   -8.639592|    0.823995|    0.012015|
|         746|   -6.263047|   -8.642334|    0.823995|    0.012015|
|         747|   -6.266171|   -8.645268|    0.823995|    0.012015|
|         748|   -6.269466|   -8.648388|    0.823996|    0.012015|
|         749|   -6.272990|   -8.651690|    0.823996|    0.012015|
|         750|   -6.276764|   -8.655168|    0.823996|    0.012015|
|         751|   -6.280766|   -8.658819|    0.823996|    0.012015|
|         752|   -6.284941|   -8.662643|    0.823996|    0.012015|
|         753|   -6.289208|   -8.666641|    0.823996|    0.012014|
|         754|   -6.293482|   -8.670817|    0.823996|    0.012014|
|         755|   -6.297678|   -8.675178|    0.823996|    0.012014|
|         756|   -6.301729|   -8.679731|    0.823996|    0.012014|
|         757|   -6.305581|   -8.684487|    0.823996|    0.012014|
|         758|   -6.309200|   -8.689457|    0.823996|    0.012014|
|         759|   -6.312564|   -8.694652|    0.823996|    0.012014|
|         760|   -6.315660|   -8.700086|    0.823996|    0.012014|
|         761|   -6.318475|   -8.705771|    0.823996|    0.012014|
|         762|   -6.320998|   -8.711721|    0.823997|    0.012014|
|         763|   -6.323215|   -8.717947|    0.823997|    0.012014|
|         764|   -6.325114|   -8.724461|    0.823997|    0.012014|
|         765|   -6.326680|   -8.731273|    0.823997|    0.012014|
|         766|   -6.327905|   -8.738389|    0.823997|    0.012014|
|         767|   -6.328784|   -8.745816|    0.823997|    0.012014|
|         768|   -6.329321|   -8.753556|    0.823997|    0.012014|
|         769|   -6.329525|   -8.761610|    0.823997|    0.012014|
|         770|   -6.329413|   -8.769972|    0.823997|    0.012014|
|         771|   -6.329007|   -8.778635|    0.823997|    0.012014|
|         772|   -6.328334|   -8.787588|    0.823997|    0.012014|
|         773|   -6.327425|   -8.796812|    0.823997|    0.012014|
|         774|   -6.326314|   -8.806287|    0.823997|    0.012014|
|         775|   -6.325036|   -8.815986|    0.823997|    0.012014|
|         776|   -6.323628|   -8.825877|    0.823997|    0.012014|
|         777|   -6.322127|   -8.835923|    0.823998|    0.012014|
|         778|   -6.320570|   -8.846082|    0.823998|    0.012014|
|         779|   -6.318994|   -8.856306|    0.823998|    0.012014|
|         780|   -6.317433|   -8.866542|    0.823998|    0.012014|
|         781|   -6.315922|   -8.876733|    0.823998|    0.012014|
|         782|   -6.314492|   -8.886815|    0.823998|    0.012014|
|         783|   -6.313174|   -8.896724|    0.823998|    0.012014|
|         784|   -6.311992|   -8.906390|    0.823998|    0.012014|
|         785|   -6.310973|   -8.915741|    0.823998|    0.012014|
|         786|   -6.310137|   -8.924701|    0.823998|    0.012015|
|         787|   -6.309504|   -8.933197|    0.823999|    0.012015|
|         788|   -6.309090|   -8.941155|    0.823999|    0.012015|
|         789|   -6.308908|   -8.948504|    0.823999|    0.012015|
|         790|   -6.308971|   -8.955183|    0.823999|    0.012015|
|         791|   -6.309288|   -8.961138|    0.823999|    0.012015|
|         792|   -6.309864|   -8.966321|    0.823999|    0.012015|
|         793|   -6.310705|   -8.970701|    0.823999|    0.012015|
|         794|   -6.311812|   -8.974264|    0.823999|    0.012015|
|         795|   -6.313185|   -8.977010|    0.824000|    0.012015|
|         796|   -6.314821|   -8.978959|    0.824000|    0.012015|
|         797|   -6.316714|   -8.980150|    0.824000|    0.012016|
|         798|   -6.318858|   -8.980638|    0.824000|    0.012016|
|         799|   -6.321241|   -8.980491|    0.824000|    0.012016|
|         800|   -6.323850|   -8.979793|    0.824000|    0.012016|
|         801|   -6.326670|   -8.978635|    0.824000|    0.012016|
|         802|   -6.329683|   -8.977115|    0.824000|    0.012016|
|         803|   -6.332866|   -8.975332|    0.824000|    0.012016|
|         804|   -6.336196|   -8.973386|    0.824000|    0.012016|
|         805|   -6.339645|   -8.971373|    0.824000|    0.012016|
|         806|   -6.343184|   -8.969383|    0.824001|    0.012016|
|         807|   -6.346781|   -8.967499|    0.824001|    0.012016|
|         808|   -6.350401|   -8.965796|    0.824001|    0.012016|
|         809|   -6.354007|   -8.964338|    0.824001|    0.012017|
|         810|   -6.357561|   -8.963181|    0.824001|    0.012017|
|         811|   -6.361024|   -8.962371|    0.824001|    0.012017|
|         812|   -6.364356|   -8.961943|    0.824001|    0.012017|
|         813|   -6.367516|   -8.961923|    0.824001|    0.012017|
|         814|   -6.370468|   -8.962329|    0.824001|    0.012017|
|         815|   -6.373173|   -8.963169|    0.824001|    0.012017|
|         816|   -6.375598|   -8.964444|    0.824001|    0.012017|
|         817|   -6.377714|   -8.966148|    0.824000|    0.012017|
|         818|   -6.379495|   -8.968265|    0.824000|    0.012017|
|         819|   -6.380920|   -8.970776|    0.824000|    0.012017|
|         820|   -6.381977|   -8.973653|    0.824000|    0.012017|
|         821|   -6.382659|   -8.976862|    0.824000|    0.012017|
|         822|   -6.382965|   -8.980366|    0.824000|    0.012017|
|         823|   -6.382902|   -8.984119|    0.824000|    0.012017|
|         824|   -6.382483|   -8.988074|    0.824000|    0.012017|
|         825|   -6.381730|   -8.992175|    0.824000|    0.012017|
|         826|   -6.380667|   -8.996366|    0.824000|    0.012017|
|         827|   -6.379327|   -9.000586|    0.824000|    0.012017|
|         828|   -6.377743|   -9.004769|    0.824000|    0.012017|
|         829|   -6.375955|   -9.008850|    0.824000|    0.012017|
|         830|   -6.374004|   -9.012761|    0.824000|    0.012017|
|         831|   -6.371933|   -9.016434|    0.823999|    0.012017|
|         832|   -6.369784|   -9.019802|    0.823999|    0.012017|
|         833|   -6.367601|   -9.022803|    0.823999|    0.012017|
|         834|   -6.365425|   -9.025375|    0.823999|    0.012017|
|         835|   -6.363299|   -9.027465|    0.823999|    0.012017|
|         836|   -6.361260|   -9.029027|    0.823999|    0.012017|
|         837|   -6.359345|   -9.030022|    0.823999|    0.012017|
|         838|   -6.357589|   -9.030423|    0.823999|    0.012017|
|         839|   -6.356023|   -9.030213|    0.823999|    0.012017|
|         840|   -6.354675|   -9.029389|    0.823999|    0.012017|
|         841|   -6.353572|   -9.027956|    0.823998|    0.012017|
|         842|   -6.352735|   -9.025936|    0.823998|    0.012017|
|         843|   -6.352186|   -9.023359|    0.823998|    0.012017|
|         844|   -6.351941|   -9.020267|    0.823998|    0.012017|
|         845|   -6.352013|   -9.016712|    0.823998|    0.012016|
|         846|   -6.352415|   -9.012752|    0.823998|    0.012016|
|         847|   -6.353154|   -9.008453|    0.823998|    0.012016|
|         848|   -6.354237|   -9.003885|    0.823998|    0.012016|
|         849|   -6.355665|   -8.999120|    0.823998|    0.012016|
|         850|   -6.357440|   -8.994233|    0.823998|    0.012016|
|         851|   -6.359558|   -8.989297|    0.823998|    0.012016|
|         852|   -6.362013|   -8.984385|    0.823998|    0.012016|
|         853|   -6.364796|   -8.979567|    0.823998|    0.012016|
|         854|   -6.367897|   -8.974910|    0.823997|    0.012016|
|         855|   -6.371298|   -8.970478|    0.823997|    0.012016|
|         856|   -6.374983|   -8.966329|    0.823997|    0.012016|
|         857|   -6.378930|   -8.962518|    0.823997|    0.012016|
|         858|   -6.383113|   -8.959092|    0.823997|    0.012016|
|         859|   -6.387503|   -8.956097|    0.823997|    0.012016|
|         860|   -6.392067|   -8.953569|    0.823997|    0.012016|
|         861|   -6.396771|   -8.951543|    0.823997|    0.012016|
|         862|   -6.401574|   -8.950047|    0.823997|    0.012015|
|         863|   -6.406433|   -8.949102|    0.823997|    0.012015|
|         864|   -6.411304|   -8.948727|    0.823998|    0.012015|
|         865|   -6.416136|   -8.948933|    0.823998|    0.012015|
|         866|   -6.420881|   -8.949729|    0.823998|    0.012015|
|         867|   -6.425488|   -8.951116|    0.823998|    0.012015|
|         868|   -6.429904|   -8.953093|    0.823998|    0.012015|
|         869|   -6.434080|   -8.955650|    0.823998|    0.012015|
|         870|   -6.437967|   -8.958777|    0.823998|    0.012015|
|         871|   -6.441519|   -8.962455|    0.823998|    0.012015|
|         872|   -6.444698|   -8.966664|    0.823998|    0.012015|
|         873|   -6.447468|   -8.971374|    0.823998|    0.012015|
|         874|   -6.449802|   -8.976556|    0.823998|    0.012015|
|         875|   -6.451680|   -8.982173|    0.823998|    0.012015|
|         876|   -6.453092|   -8.988183|    0.823998|    0.012015|
|         877|   -6.454036|   -8.994542|    0.823998|    0.012015|
|         878|   -6.454519|   -9.001200|    0.823999|    0.012015|
|         879|   -6.454557|   -9.008103|    0.823999|    0.012015|
|         880|   -6.454173|   -9.015196|    0.823999|    0.012015|
|         881|   -6.453399|   -9.022418|    0.823999|    0.012015|
|         882|   -6.452271|   -9.029707|    0.823999|    0.012015|
|         883|   -6.450830|   -9.037000|    0.823999|    0.012015|
|         884|   -6.449123|   -9.044233|    0.823999|    0.012015|
|         885|   -6.447196|   -9.051342|    0.823999|    0.012015|
|         886|   -6.445097|   -9.058263|    0.823999|    0.012015|
|         887|   -6.442876|   -9.064938|    0.823999|    0.012015|
|         888|   -6.440578|   -9.071308|    0.824000|    0.012015|
|         889|   -6.438250|   -9.077322|    0.824000|    0.012015|
|         890|   -6.435935|   -9.082933|    0.824000|    0.012015|
|         891|   -6.433674|   -9.088102|    0.824000|    0.012015|
|         892|   -6.431503|   -9.092793|    0.824000|    0.012015|
|         893|   -6.429457|   -9.096983|    0.824000|    0.012015|
|         894|   -6.427566|   -9.100653|    0.824000|    0.012015|
|         895|   -6.425857|   -9.103794|    0.824000|    0.012015|
|         896|   -6.424356|   -9.106405|    0.824000|    0.012015|
|         897|   -6.423082|   -9.108492|    0.824001|    0.012015|
|         898|   -6.422053|   -9.110069|    0.824001|    0.012015|
|         899|   -6.421286|   -9.111156|    0.824001|    0.012015|
|         900|   -6.420791|   -9.111780|    0.824001|    0.012015|
|         901|   -6.420581|   -9.111973|    0.824001|    0.012015|
+-----------------------------------------------------------------------+
|Fixed CL Mode                           |Value                         |
+-----------------------------------------------------------------------+
|Current CL                              |0.824001                      |
|Target CL                               |0.824                         |
|Previous AOA                            |2.78874                       |
|Changed AoA by                          |-3.84223e-06                  |
+-----------------------------------------------------------------------+
+----------------------------------------------------------------+
|  Inner_Iter|    rms[Rho]|     rms[nu]|          CL|          CD|
+----------------------------------------------------------------+
|         902|   -5.603364|   -9.098984|    0.824001|    0.012015|
|         903|   -5.962015|   -9.104690|    0.824001|    0.012015|
|         904|   -6.154846|   -9.105337|    0.824001|    0.012015|
|         905|   -6.209631|   -9.104967|    0.824001|    0.012015|
|         906|   -6.244785|   -9.104260|    0.824001|    0.012015|
|         907|   -6.284183|   -9.103369|    0.824001|    0.012015|
|         908|   -6.324237|   -9.102319|    0.824001|    0.012015|
|         909|   -6.357156|   -9.101110|    0.824001|    0.012016|
|         910|   -6.379428|   -9.099751|    0.824001|    0.012016|
|         911|   -6.393132|   -9.098263|    0.824001|    0.012016|
|         912|   -6.401728|   -9.096686|    0.824002|    0.012016|
|         913|   -6.407393|   -9.095082|    0.824002|    0.012016|
|         914|   -6.411339|   -9.093522|    0.824002|    0.012016|
|         915|   -6.414649|   -9.092072|    0.824002|    0.012016|
|         916|   -6.418356|   -9.090787|    0.824002|    0.012016|
|         917|   -6.423105|   -9.089710|    0.824002|    0.012016|
|         918|   -6.428945|   -9.088886|    0.824002|    0.012016|
|         919|   -6.435445|   -9.088354|    0.824002|    0.012016|
[...]
|        5298|   -6.037270|   -7.973869|    0.824236|    0.012019|
|        5299|   -6.043978|   -7.977595|    0.824236|    0.012019|
|        5300|   -6.050295|   -7.981368|    0.824236|    0.012019|
|        5301|   -6.056180|   -7.985209|    0.824237|    0.012019|
|        5302|   -6.061605|   -7.989135|    0.824237|    0.012019|
|        5303|   -6.066556|   -7.993161|    0.824237|    0.012019|
|        5304|   -6.071026|   -7.997295|    0.824237|    0.012019|
|        5305|   -6.075024|   -8.001542|    0.824237|    0.012019|
|        5306|   -6.078569|   -8.005907|    0.824237|    0.012019|
|        5307|   -6.081691|   -8.010389|    0.824237|    0.012019|
|        5308|   -6.084429|   -8.014991|    0.824237|    0.012019|
|        5309|   -6.086829|   -8.019713|    0.824237|    0.012019|
|        5310|   -6.088942|   -8.024555|    0.824238|    0.012019|
|        5311|   -6.090824|   -8.029519|    0.824238|    0.012019|
|        5312|   -6.092533|   -8.034605|    0.824238|    0.012019|
|        5313|   -6.094126|   -8.039817|    0.824238|    0.012019|
|        5314|   -6.095659|   -8.045158|    0.824238|    0.012019|
|        5315|   -6.097184|   -8.050633|    0.824238|    0.012019|
|        5316|   -6.098751|   -8.056247|    0.824238|    0.012019|
|        5317|   -6.100404|   -8.062005|    0.824238|    0.012019|
|        5318|   -6.102181|   -8.067914|    0.824239|    0.012019|
|        5319|   -6.104114|   -8.073979|    0.824239|    0.012019|
|        5320|   -6.106231|   -8.080206|    0.824239|    0.012019|
|        5321|   -6.108550|   -8.086601|    0.824239|    0.012019|
|        5322|   -6.111085|   -8.093166|    0.824239|    0.012019|
|        5323|   -6.113841|   -8.099905|    0.824239|    0.012019|
|        5324|   -6.116818|   -8.106819|    0.824239|    0.012020|
|        5325|   -6.120010|   -8.113904|    0.824240|    0.012020|
|        5326|   -6.123402|   -8.121159|    0.824240|    0.012020|
|        5327|   -6.126975|   -8.128577|    0.824240|    0.012020|
|        5328|   -6.130705|   -8.136149|    0.824240|    0.012020|
|        5329|   -6.134562|   -8.143865|    0.824240|    0.012020|
|        5330|   -6.138511|   -8.151713|    0.824240|    0.012020|
|        5331|   -6.142517|   -8.159679|    0.824241|    0.012020|
|        5332|   -6.146538|   -8.167747|    0.824241|    0.012020|
|        5333|   -6.150533|   -8.175901|    0.824241|    0.012020|
|        5334|   -6.154462|   -8.184123|    0.824241|    0.012020|
|        5335|   -6.158283|   -8.192396|    0.824241|    0.012020|
|        5336|   -6.161961|   -8.200702|    0.824241|    0.012021|
|        5337|   -6.165459|   -8.209023|    0.824241|    0.012021|
|        5338|   -6.168752|   -8.217344|    0.824242|    0.012021|
|        5339|   -6.171816|   -8.225650|    0.824242|    0.012021|
|        5340|   -6.174636|   -8.233930|    0.824242|    0.012021|
|        5341|   -6.177206|   -8.242172|    0.824242|    0.012021|
|        5342|   -6.179527|   -8.250367|    0.824242|    0.012021|
|        5343|   -6.181608|   -8.258510|    0.824242|    0.012021|
|        5344|   -6.183466|   -8.266596|    0.824242|    0.012021|
|        5345|   -6.185125|   -8.274623|    0.824242|    0.012021|
|        5346|   -6.186615|   -8.282592|    0.824242|    0.012021|
|        5347|   -6.187971|   -8.290509|    0.824243|    0.012021|
|        5348|   -6.189232|   -8.298379|    0.824243|    0.012021|
|        5349|   -6.190440|   -8.306210|    0.824243|    0.012021|
|        5350|   -6.191637|   -8.314008|    0.824243|    0.012022|
|        5351|   -6.192867|   -8.321781|    0.824243|    0.012022|
|        5352|   -6.194172|   -8.329536|    0.824243|    0.012022|
|        5353|   -6.195590|   -8.337281|    0.824243|    0.012022|
|        5354|   -6.197162|   -8.345023|    0.824243|    0.012022|
|        5355|   -6.198919|   -8.352768|    0.824243|    0.012022|
|        5356|   -6.200894|   -8.360522|    0.824243|    0.012022|
|        5357|   -6.203113|   -8.368289|    0.824243|    0.012022|
|        5358|   -6.205598|   -8.376073|    0.824243|    0.012022|
|        5359|   -6.208367|   -8.383877|    0.824243|    0.012022|
|        5360|   -6.211432|   -8.391701|    0.824243|    0.012022|
|        5361|   -6.214802|   -8.399547|    0.824243|    0.012022|
|        5362|   -6.218479|   -8.407413|    0.824243|    0.012022|
|        5363|   -6.222462|   -8.415297|    0.824243|    0.012022|
|        5364|   -6.226743|   -8.423194|    0.824243|    0.012022|
|        5365|   -6.231312|   -8.431099|    0.824243|    0.012022|
|        5366|   -6.236151|   -8.439004|    0.824243|    0.012022|
|        5367|   -6.241239|   -8.446901|    0.824243|    0.012022|
|        5368|   -6.246549|   -8.454780|    0.824243|    0.012022|
|        5369|   -6.252051|   -8.462628|    0.824243|    0.012022|
|        5370|   -6.257710|   -8.470435|    0.824243|    0.012021|
|        5371|   -6.263487|   -8.478187|    0.824243|    0.012021|
|        5372|   -6.269340|   -8.485872|    0.824243|    0.012021|
|        5373|   -6.275224|   -8.493478|    0.824243|    0.012021|
|        5374|   -6.281091|   -8.500989|    0.824243|    0.012021|
|        5375|   -6.286893|   -8.508387|    0.824243|    0.012021|
|        5376|   -6.292582|   -8.515657|    0.824243|    0.012021|
|        5377|   -6.298109|   -8.522784|    0.824243|    0.012021|
|        5378|   -6.303430|   -8.529759|    0.824243|    0.012021|
|        5379|   -6.308502|   -8.536562|    0.824243|    0.012021|
|        5380|   -6.313286|   -8.543175|    0.824243|    0.012021|
|        5381|   -6.317749|   -8.549581|    0.824243|    0.012021|
|        5382|   -6.321866|   -8.555763|    0.824243|    0.012021|
|        5383|   -6.325616|   -8.561706|    0.824243|    0.012021|
|        5384|   -6.328987|   -8.567389|    0.824243|    0.012020|
|        5385|   -6.331974|   -8.572795|    0.824243|    0.012020|
|        5386|   -6.334577|   -8.577903|    0.824243|    0.012020|
|        5387|   -6.336806|   -8.582690|    0.824243|    0.012020|
|        5388|   -6.338675|   -8.587133|    0.824243|    0.012020|
|        5389|   -6.340203|   -8.591208|    0.824244|    0.012020|
|        5390|   -6.341413|   -8.594890|    0.824244|    0.012020|
|        5391|   -6.342331|   -8.598156|    0.824244|    0.012020|
|        5392|   -6.342983|   -8.600981|    0.824244|    0.012020|
|        5393|   -6.343398|   -8.603344|    0.824244|    0.012020|
|        5394|   -6.343603|   -8.605224|    0.824244|    0.012019|
|        5395|   -6.343625|   -8.606604|    0.824244|    0.012019|
|        5396|   -6.343489|   -8.607468|    0.824244|    0.012019|
|        5397|   -6.343219|   -8.607808|    0.824245|    0.012019|
|        5398|   -6.342834|   -8.607619|    0.824245|    0.012019|
|        5399|   -6.342354|   -8.606902|    0.824245|    0.012019|
|        5400|   -6.341794|   -8.605667|    0.824245|    0.012019|
|        5401|   -6.341166|   -8.603930|    0.824245|    0.012019|
|        5402|   -6.340482|   -8.601715|    0.824245|    0.012019|
|        5403|   -6.339750|   -8.599053|    0.824246|    0.012019|
|        5404|   -6.338977|   -8.595982|    0.824246|    0.012019|
|        5405|   -6.338167|   -8.592544|    0.824246|    0.012018|
|        5406|   -6.337327|   -8.588790|    0.824246|    0.012018|
|        5407|   -6.336458|   -8.584773|    0.824246|    0.012018|
|        5408|   -6.335563|   -8.580548|    0.824247|    0.012018|
|        5409|   -6.334645|   -8.576171|    0.824247|    0.012018|
|        5410|   -6.333707|   -8.571696|    0.824247|    0.012018|
|        5411|   -6.332750|   -8.567176|    0.824247|    0.012018|
|        5412|   -6.331776|   -8.562662|    0.824247|    0.012018|
|        5413|   -6.330790|   -8.558198|    0.824248|    0.012018|
|        5414|   -6.329793|   -8.553827|    0.824248|    0.012018|
|        5415|   -6.328790|   -8.549586|    0.824248|    0.012018|
|        5416|   -6.327785|   -8.545507|    0.824248|    0.012018|
|        5417|   -6.326783|   -8.541618|    0.824248|    0.012018|
|        5418|   -6.325791|   -8.537942|    0.824249|    0.012018|
|        5419|   -6.324813|   -8.534497|    0.824249|    0.012018|
|        5420|   -6.323859|   -8.531297|    0.824249|    0.012017|
|        5421|   -6.322934|   -8.528352|    0.824249|    0.012017|
|        5422|   -6.322050|   -8.525667|    0.824249|    0.012017|
|        5423|   -6.321213|   -8.523245|    0.824249|    0.012017|
|        5424|   -6.320436|   -8.521087|    0.824250|    0.012017|
|        5425|   -6.319729|   -8.519189|    0.824250|    0.012017|
|        5426|   -6.319103|   -8.517546|    0.824250|    0.012017|
|        5427|   -6.318570|   -8.516152|    0.824250|    0.012017|
|        5428|   -6.318144|   -8.514999|    0.824250|    0.012017|
|        5429|   -6.317839|   -8.514081|    0.824250|    0.012017|
|        5430|   -6.317667|   -8.513389|    0.824250|    0.012017|
|        5431|   -6.317643|   -8.512913|    0.824250|    0.012017|
|        5432|   -6.317780|   -8.512642|    0.824251|    0.012017|
|        5433|   -6.318093|   -8.512567|    0.824251|    0.012017|
|        5434|   -6.318594|   -8.512675|    0.824251|    0.012017|
|        5435|   -6.319299|   -8.512958|    0.824251|    0.012017|
|        5436|   -6.320218|   -8.513407|    0.824251|    0.012017|
|        5437|   -6.321365|   -8.514016|    0.824251|    0.012018|
|        5438|   -6.322750|   -8.514779|    0.824251|    0.012018|
|        5439|   -6.324383|   -8.515691|    0.824251|    0.012018|
|        5440|   -6.326273|   -8.516749|    0.824251|    0.012018|
|        5441|   -6.328424|   -8.517948|    0.824251|    0.012018|
|        5442|   -6.330843|   -8.519287|    0.824251|    0.012018|
|        5443|   -6.333530|   -8.520762|    0.824251|    0.012018|
|        5444|   -6.336486|   -8.522372|    0.824251|    0.012018|
|        5445|   -6.339708|   -8.524113|    0.824251|    0.012018|
|        5446|   -6.343192|   -8.525982|    0.824251|    0.012018|
|        5447|   -6.346927|   -8.527977|    0.824251|    0.012018|
|        5448|   -6.350902|   -8.530096|    0.824251|    0.012018|
|        5449|   -6.355100|   -8.532335|    0.824251|    0.012018|
|        5450|   -6.359502|   -8.534689|    0.824251|    0.012018|
|        5451|   -6.364087|   -8.537156|    0.824251|    0.012018|
|        5452|   -6.368828|   -8.539730|    0.824251|    0.012018|
|        5453|   -6.373694|   -8.542405|    0.824251|    0.012019|
|        5454|   -6.378654|   -8.545178|    0.824251|    0.012019|
|        5455|   -6.383671|   -8.548040|    0.824251|    0.012019|
|        5456|   -6.388706|   -8.550988|    0.824251|    0.012019|
|        5457|   -6.393718|   -8.554013|    0.824251|    0.012019|
|        5458|   -6.398663|   -8.557111|    0.824251|    0.012019|
|        5459|   -6.403498|   -8.560273|    0.824251|    0.012019|
|        5460|   -6.408177|   -8.563495|    0.824251|    0.012019|
|        5461|   -6.412656|   -8.566767|    0.824251|    0.012019|
|        5462|   -6.416894|   -8.570084|    0.824251|    0.012019|
|        5463|   -6.420849|   -8.573439|    0.824251|    0.012019|
|        5464|   -6.424486|   -8.576824|    0.824251|    0.012019|
|        5465|   -6.427774|   -8.580233|    0.824251|    0.012019|
|        5466|   -6.430687|   -8.583658|    0.824251|    0.012020|
|        5467|   -6.433206|   -8.587094|    0.824251|    0.012020|
|        5468|   -6.435318|   -8.590532|    0.824250|    0.012020|
|        5469|   -6.437020|   -8.593966|    0.824250|    0.012020|
|        5470|   -6.438312|   -8.597389|    0.824250|    0.012020|
|        5471|   -6.439207|   -8.600795|    0.824250|    0.012020|
|        5472|   -6.439719|   -8.604174|    0.824250|    0.012020|
|        5473|   -6.439872|   -8.607519|    0.824250|    0.012020|
|        5474|   -6.439694|   -8.610823|    0.824250|    0.012020|
|        5475|   -6.439217|   -8.614078|    0.824250|    0.012020|
|        5476|   -6.438478|   -8.617277|    0.824250|    0.012020|
|        5477|   -6.437514|   -8.620409|    0.824249|    0.012020|
|        5478|   -6.436366|   -8.623469|    0.824249|    0.012020|
|        5479|   -6.435073|   -8.626446|    0.824249|    0.012020|
|        5480|   -6.433677|   -8.629332|    0.824249|    0.012020|
|        5481|   -6.432215|   -8.632119|    0.824249|    0.012020|
|        5482|   -6.430725|   -8.634799|    0.824249|    0.012020|
|        5483|   -6.429243|   -8.637365|    0.824249|    0.012020|
|        5484|   -6.427802|   -8.639808|    0.824249|    0.012020|
|        5485|   -6.426433|   -8.642123|    0.824249|    0.012020|
|        5486|   -6.425164|   -8.644306|    0.824248|    0.012020|
|        5487|   -6.424019|   -8.646353|    0.824248|    0.012020|
|        5488|   -6.423020|   -8.648260|    0.824248|    0.012020|
|        5489|   -6.422187|   -8.650025|    0.824248|    0.012020|
|        5490|   -6.421538|   -8.651647|    0.824248|    0.012020|
|        5491|   -6.421085|   -8.653123|    0.824248|    0.012020|
|        5492|   -6.420841|   -8.654455|    0.824248|    0.012020|
|        5493|   -6.420815|   -8.655644|    0.824248|    0.012020|
|        5494|   -6.421014|   -8.656694|    0.824248|    0.012020|
|        5495|   -6.421445|   -8.657609|    0.824248|    0.012020|
|        5496|   -6.422111|   -8.658395|    0.824248|    0.012020|
|        5497|   -6.423013|   -8.659056|    0.824248|    0.012020|
|        5498|   -6.424152|   -8.659601|    0.824248|    0.012020|
|        5499|   -6.425527|   -8.660038|    0.824248|    0.012006|
+-----------------------------------------------------------------------+
|Fixed CL Mode (Finite Difference)       |Value                         |
+-----------------------------------------------------------------------+
|Delta CL / Delta AoA                    |0.247741                      |
|Delta CD / Delta CL                     |0.0175425                     |
|Delta CMz / Delta CL                    |0.00476659                    |
+-----------------------------------------------------------------------+
Writing Flow Meta-Data file: flow.meta

----------------------------- Solver Exit -------------------------------

Maximum number of iterations reached (ITER = 5500) before convergence.
+-----------------------------------------------------------------------+
|      Convergence Field     |     Value    |   Criterion  |  Converged |
+-----------------------------------------------------------------------+
|                    rms[Rho]|      -6.42553|         < -12|          No|
+-----------------------------------------------------------------------+
-------------------------------------------------------------------------

--------------------------- Finalizing Solver ---------------------------
Deleted CNumerics container.
Deleted CIntegration container.
Deleted CSolver container.
Deleted CIteration container.
Deleted CInterface container.
Deleted CGeometry container.
Deleted CFreeFormDefBox class.
Deleted CSurfaceMovement class.
Deleted CVolumetricMovement class.
Deleted CConfig container.
Deleted nInst container.
Deleted COutput class.
-------------------------------------------------------------------------

------------------------- Exit Success (SU2_CFD) ------------------------


-------------------------------------------------------------------------
|    ___ _   _ ___                                                      |
|   / __| | | |_  )   Release 8.0.0 "Harrier"                           |
|   \__ \ |_| |/ /                                                      |
|   |___/\___//___|   Suite (Solution Exporting Code)                   |
|                                                                       |
-------------------------------------------------------------------------
| SU2 Project Website: https://su2code.github.io                        |
|                                                                       |
| The SU2 Project is maintained by the SU2 Foundation                   |
| (http://su2foundation.org)                                            |
-------------------------------------------------------------------------
| Copyright 2012-2023, SU2 Contributors                                 |
|                                                                       |
| SU2 is free software; you can redistribute it and/or                  |
| modify it under the terms of the GNU Lesser General Public            |
| License as published by the Free Software Foundation; either          |
| version 2.1 of the License, or (at your option) any later version.    |
|                                                                       |
| SU2 is distributed in the hope that it will be useful,                |
| but WITHOUT ANY WARRANTY; without even the implied warranty of        |
| MERCHANTABILITY or FITNESS FOR A PARTICULAR PURPOSE. See the GNU      |
| Lesser General Public License for more details.                       |
|                                                                       |
| You should have received a copy of the GNU Lesser General Public      |
| License along with SU2. If not, see <http://www.gnu.org/licenses/>.   |
-------------------------------------------------------------------------

----------------- Physical Case Definition ( Zone 0 ) -------------------
Input mesh file name: mesh_RAE2822_turb_deform.su2

-------------------- Output Information ( Zone 0 ) ----------------------
The tabular file format is CSV (.csv).
Flow variables file name: flow.

------------- Config File Boundary Information ( Zone 0 ) ---------------
+-----------------------------------------------------------------------+
|                        Marker Type|                        Marker Name|
+-----------------------------------------------------------------------+
|                          Far-field|                           FARFIELD|
+-----------------------------------------------------------------------+
|                     Heat flux wall|                            AIRFOIL|
+-----------------------------------------------------------------------+
Two dimensional problem.
13937 grid points before partitioning.
22842 volume elements before partitioning.
2 surface markers.
192 boundary elements in index 0 (Marker = AIRFOIL).
40 boundary elements in index 1 (Marker = FARFIELD).
Executing the partitioning functions.
Building the graph adjacency structure.
Calling ParMETIS... graph partitioning complete (831 edge cuts).
Distributing ParMETIS coloring.
Rebalancing vertices.
Rebalancing volume element connectivity.
Rebalancing markers and surface elements.
14875 vertices including ghost points. 
23674 interior elements including halo cells. 
18780 triangles.
4894 quadrilaterals.
Establishing MPI communication patterns.
Identify vertices.
Storing a mapping from global to local point index.

------------------------- Solution Postprocessing -----------------------
Reading and storing the solution from restart_flow.
Volume output fields: COORDINATES, SOLUTION
  Info: Ignoring the following screen output fields:
  RMS_DENSITY, RMS_NU_TILDE, LIFT, DRAG
Screen output fields: INNER_ITER
  Info: Ignoring the following history output groups:
  RMS_RES, AERO_COEFF
History output group(s): ITER
Warning: No (valid) fields chosen for convergence monitoring. Convergence monitoring inactive.
Warning: No (valid) fields chosen for time convergence monitoring. Time convergence monitoring inactive.
|Paraview                           |flow.vtu                           |
|Paraview surface                   |surface_flow.vtu                   |
|CSV file                           |surface_flow.csv                   |

------------------------- Finalize Solver -------------------------
Deleted CGeometry container.
Deleted CSolver class.
Deleted CConfig container.
Deleted COutput class.

Completed in 0.017718 seconds on 6 cores.

------------------------- Exit Success (SU2_SOL) ------------------------

