
-------------------------------------------------------------------------
|    ___ _   _ ___                                                      |
|   / __| | | |_  )   Release 8.0.0 "Harrier"                           |
|   \__ \ |_| |/ /                                                      |
|   |___/\___//___|   Suite (Computational Fluid Dynamics Code)         |
|                                                                       |
-------------------------------------------------------------------------
| SU2 Project Website: https://su2code.github.io                        |
|                                                                       |
| The SU2 Project is maintained by the SU2 Foundation                   |
| (http://su2foundation.org)                                            |
-------------------------------------------------------------------------
| Copyright 2012-2023, SU2 Contributors                                 |
|                                                                       |
| SU2 is free software; you can redistribute it and/or                  |
| modify it under the terms of the GNU Lesser General Public            |
| License as published by the Free Software Foundation; either          |
| version 2.1 of the License, or (at your option) any later version.    |
|                                                                       |
| SU2 is distributed in the hope that it will be useful,                |
| but WITHOUT ANY WARRANTY; without even the implied warranty of        |
| MERCHANTABILITY or FITNESS FOR A PARTICULAR PURPOSE. See the GNU      |
| Lesser General Public License for more details.                       |
|                                                                       |
| You should have received a copy of the GNU Lesser General Public      |
| License along with SU2. If not, see <http://www.gnu.org/licenses/>.   |
-------------------------------------------------------------------------

Parsing config file for zone 0

----------------- Physical Case Definition ( Zone 0 ) -------------------
Compressible RANS equations.
Turbulence model: Spalart-Allmaras-noft2
Hybrid RANS/LES: No Hybrid RANS/LES
Mach number: 0.734.
Angle of attack (AoA): 2.31 deg, and angle of sideslip (AoS): 0 deg.
Reynolds number: 6.5e+06. Reference length 1.
Fixed CL mode, target value: 0.824.
Reading and writing binary SU2 native restart files.
Read flow solution from: solution_flow.dat.
Dimensional simulation.
The reference area is 1 m^2.
The semi-span will be computed using the max y(3D) value.
The reference length is 1 m.
Reference origin for moment evaluation is (0.25, 0, 0).
Surface(s) where the force coefficients are evaluated: AIRFOIL.

Surface(s) plotted in the output file: AIRFOIL.
Surface(s) affected by the design variables: AIRFOIL.
Input mesh file name: mesh_RAE2822_turb_deform.su2

--------------- Space Numerical Integration ( Zone 0 ) ------------------
Jameson-Schmidt-Turkel scheme (2nd order in space) for the flow inviscid terms.
JST viscous coefficients (2nd & 4th): 0.5, 0.02.
The method includes a grid stretching correction (p = 0.3).
Scalar upwind solver for the turbulence model.
First order integration in space.
Average of gradients with correction (viscous flow terms).
Average of gradients with correction (viscous turbulence terms).
Gradient for viscous and source terms: inverse-distance weighted Least-Squares.

--------------- Time Numerical Integration  ( Zone 0 ) ------------------
Local time stepping (steady state simulation).
Euler implicit method for the flow equations.
FGMRES is used for solving the linear system.
Using a ILU(0) preconditioning.
Convergence criteria of the linear solver: 1e-06.
Max number of linear iterations: 10.
No CFL adaptation.
Courant-Friedrichs-Lewy number:       10
Euler implicit time integration for the turbulence model.

------------------ Convergence Criteria  ( Zone 0 ) ---------------------
Maximum number of solver subiterations: 5500.
Begin convergence monitoring at iteration 10.
Residual minimum value: 1e-12.
Cauchy series min. value: 1e-06.
Number of Cauchy elements: 100.
Begin windowed time average at iteration 0.

-------------------- Output Information ( Zone 0 ) ----------------------
File writing frequency: 
+------------------------------------+
|                     File| Frequency|
+------------------------------------+
|                  RESTART|     10000|
|                 PARAVIEW|     10000|
|         SURFACE_PARAVIEW|     10000|
|              SURFACE_CSV|     10000|
+------------------------------------+
Writing the convergence history file every 1 inner iterations.
Writing the screen convergence history every 1 inner iterations.
The tabular file format is CSV (.csv).
Convergence history file name: history_direct.
Forces breakdown file name: forces_breakdown.dat.
Surface file name: surface_flow.
Volume file name: flow.
Restart file name: restart_flow.dat.

------------- Config File Boundary Information ( Zone 0 ) ---------------
+-----------------------------------------------------------------------+
|                        Marker Type|                        Marker Name|
+-----------------------------------------------------------------------+
|                          Far-field|                           FARFIELD|
+-----------------------------------------------------------------------+
|                     Heat flux wall|                            AIRFOIL|
+-----------------------------------------------------------------------+

-------------------- Output Preprocessing ( Zone 0 ) --------------------

WARNING: SURFACE_PRESSURE_DROP can only be computed for at least 2 surfaces (outlet, inlet, ...)

Screen output fields: INNER_ITER, RMS_DENSITY, RMS_NU_TILDE, LIFT, DRAG
History output group(s): ITER, RMS_RES, AERO_COEFF
Convergence field(s): RMS_DENSITY
Warning: No (valid) fields chosen for time convergence monitoring. Time convergence monitoring inactive.
Volume output fields: COORDINATES, SOLUTION, PRIMITIVE

------------------- Geometry Preprocessing ( Zone 0 ) -------------------
Two dimensional problem.
13937 grid points before partitioning.
22842 volume elements before partitioning.
2 surface markers.
192 boundary elements in index 0 (Marker = AIRFOIL).
40 boundary elements in index 1 (Marker = FARFIELD).
Executing the partitioning functions.
Building the graph adjacency structure.
Calling ParMETIS... graph partitioning complete (831 edge cuts).
Distributing ParMETIS coloring.
Rebalancing vertices.
Rebalancing volume element connectivity.
Rebalancing markers and surface elements.
14875 vertices including ghost points. 
23674 interior elements including halo cells. 
18780 triangles.
4894 quadrilaterals.
Establishing MPI communication patterns.
Setting point connectivity.
Renumbering points (Reverse Cuthill McKee Ordering).
Recomputing point connectivity.
Setting element connectivity.
Checking the numerical grid orientation.
All volume elements are correctly orientend.
All surface elements are correctly orientend.
Identifying edges and vertices.
Setting the control volume structure.
Area of the computational grid: 32209.9.
Searching for the closest normal neighbors to the surfaces.
Storing a mapping from global to local point index.
Compute the surface curvature.
Max K: 161.101. Mean K: 7.39265. Standard deviation K: 21.9936.
Checking for periodicity.
Computing mesh quality statistics for the dual control volumes.
+--------------------------------------------------------------+
|           Mesh Quality Metric|        Minimum|        Maximum|
+--------------------------------------------------------------+
|    Orthogonality Angle (deg.)|        75.2883|        89.9994|
|     CV Face Area Aspect Ratio|        1.00111|        3358.41|
|           CV Sub-Volume Ratio|        1.00067|        1212.31|
+--------------------------------------------------------------+
Finding max control volume width.
Communicating number of neighbors.
Wetted area = 2.02291 m.
Area projection in the x-plane = 0.124283 m, y-plane = 0.995873 m.
Max. coordinate in the x-direction = 1 m, y-direction = 0.0632063 m.
Min. coordinate in the x-direction = 0 m, y-direction = -0.0595426 m.
Computing wall distances.

-------------------- Solver Preprocessing ( Zone 0 ) --------------------
WARNING: AoA in the solution file (2.78209 deg.) +
         AoA offset in mesh file (0 deg.) = 2.78209 deg.
WARNING: SU2 will use the dCD/dCL provided in the direct solution file: 0.0196156.
WARNING: SU2 will use the dCMz/dCL provided in the direct solution file: 0.00567133.
Viscous flow: Computing pressure using the ideal gas law
based on the free-stream temperature and a density computed
from the Reynolds number.
Force coefficients computed using free-stream values.

-- Models:
+------------------------------------------------------------------------------+
|          Viscosity Model|        Conductivity Model|              Fluid Model|
+------------------------------------------------------------------------------+
|               SUTHERLAND|          CONSTANT_PRANDTL|             STANDARD_AIR|
+------------------------------------------------------------------------------+
-- Fluid properties:
+------------------------------------------------------------------------------+
|                  Name|    Dim. value|    Ref. value|      Unit|Non-dim. value|
+------------------------------------------------------------------------------+
|        Ref. Viscosity|     1.716e-05|             1|   N.s/m^2|     1.716e-05|
|      Sutherland Temp.|        273.15|             1|         K|        273.15|
|     Sutherland Const.|         110.4|             1|         K|         110.4|
+------------------------------------------------------------------------------+
|        Prandtl (Lam.)|             -|             -|         -|          0.71|
|       Prandtl (Turb.)|             -|             -|         -|           0.9|
+------------------------------------------------------------------------------+
|          Gas Constant|       287.058|             1|  N.m/kg.K|       287.058|
|      Spec. Heat Ratio|             -|             -|         -|           1.4|
+------------------------------------------------------------------------------+
-- Initial and free-stream conditions:
+------------------------------------------------------------------------------+
|                  Name|    Dim. value|    Ref. value|      Unit|Non-dim. value|
+------------------------------------------------------------------------------+
|       Static Pressure|         38515|             1|        Pa|         38515|
|               Density|      0.465631|             1|    kg/m^3|      0.465631|
|           Temperature|        288.15|             1|         K|        288.15|
|          Total Energy|        237984|             1|   m^2/s^2|        237984|
|            Velocity-X|       249.484|             1|       m/s|       249.484|
|            Velocity-Y|       12.1236|             1|       m/s|       12.1236|
|    Velocity Magnitude|       249.778|             1|       m/s|       249.778|
+------------------------------------------------------------------------------+
|             Viscosity|    1.7893e-05|             1|   N.s/m^2|    1.7893e-05|
|          Conductivity|             -|             1|   W/m^2.K|             -|
|     Turb. Kin. Energy|       233.959|             1|   m^2/s^2|       233.959|
|     Spec. Dissipation|        608834|             1|       1/s|        608834|
+------------------------------------------------------------------------------+
|           Mach Number|             -|             -|         -|         0.734|
|       Reynolds Number|             -|             -|         -|       6.5e+06|
+------------------------------------------------------------------------------+
Initialize Jacobian structure (Navier-Stokes). MG level: 0.
Initialize Jacobian structure (SA model).

------------------- Numerics Preprocessing ( Zone 0 ) -------------------

----------------- Integration Preprocessing ( Zone 0 ) ------------------

------------------- Iteration Preprocessing ( Zone 0 ) ------------------
Euler/Navier-Stokes/RANS fluid iteration.

------------------------------ Begin Solver -----------------------------

Simulation Run using the Single-zone Driver
WARNING: SU2 was not compiled for an AVX-capable architecture. Performance could be better,
         see https://su2code.github.io/docs_v7/Build-SU2-Linux-MacOS/#compiler-optimizations
+----------------------------------------------------------------+
|  Inner_Iter|    rms[Rho]|     rms[nu]|          CL|          CD|
+----------------------------------------------------------------+
|           0|   -3.882859|   -5.100758|    0.824670|    0.011675|
|           1|   -3.939649|   -5.200269|    0.825002|    0.011630|
|           2|   -4.002540|   -5.311836|    0.825071|    0.011599|
|           3|   -4.056134|   -5.431771|    0.824975|    0.011578|
|           4|   -4.099135|   -5.557974|    0.824814|    0.011563|
|           5|   -4.130201|   -5.679534|    0.824663|    0.011556|
|           6|   -4.148345|   -5.763566|    0.824565|    0.011556|
|           7|   -4.155490|   -5.780156|    0.824532|    0.011566|
|           8|   -4.154953|   -5.752268|    0.824556|    0.011586|
|           9|   -4.148966|   -5.720440|    0.824623|    0.011617|
|          10|   -4.138590|   -5.702579|    0.824715|    0.011658|
|          11|   -4.124996|   -5.700750|    0.824819|    0.011707|
|          12|   -4.110020|   -5.710260|    0.824924|    0.011764|
|          13|   -4.095678|   -5.722586|    0.825019|    0.011825|
|          14|   -4.083492|   -5.726730|    0.825093|    0.011889|
|          15|   -4.074201|   -5.713774|    0.825140|    0.011954|
|          16|   -4.067814|   -5.683107|    0.825153|    0.012018|
|          17|   -4.063808|   -5.642444|    0.825130|    0.012080|
|          18|   -4.061377|   -5.601676|    0.825072|    0.012136|
|          19|   -4.059685|   -5.567871|    0.824983|    0.012188|
|          20|   -4.058095|   -5.544678|    0.824867|    0.012234|
|          21|   -4.056319|   -5.533302|    0.824734|    0.012273|
|          22|   -4.054436|   -5.533404|    0.824592|    0.012307|
|          23|   -4.052773|   -5.543507|    0.824450|    0.012335|
|          24|   -4.051728|   -5.561040|    0.824315|    0.012359|
|          25|   -4.051602|   -5.582412|    0.824194|    0.012380|
|          26|   -4.052515|   -5.603225|    0.824092|    0.012397|
|          27|   -4.054378|   -5.619232|    0.824010|    0.012412|
|          28|   -4.056948|   -5.627981|    0.823949|    0.012426|
|          29|   -4.059891|   -5.629818|    0.823907|    0.012439|
|          30|   -4.062869|   -5.627223|    0.823882|    0.012452|
|          31|   -4.065609|   -5.623671|    0.823870|    0.012464|
|          32|   -4.067936|   -5.621779|    0.823866|    0.012477|
|          33|   -4.069791|   -5.623473|    0.823866|    0.012490|
|          34|   -4.071209|   -5.629637|    0.823866|    0.012503|
|          35|   -4.072285|   -5.640371|    0.823862|    0.012517|
|          36|   -4.073139|   -5.655145|    0.823849|    0.012532|
|          37|   -4.073881|   -5.672998|    0.823827|    0.012546|
|          38|   -4.074597|   -5.692775|    0.823792|    0.012561|
|          39|   -4.075340|   -5.713114|    0.823744|    0.012577|
|          40|   -4.076136|   -5.732683|    0.823682|    0.012592|
|          41|   -4.076991|   -5.750352|    0.823606|    0.012607|
|          42|   -4.077902|   -5.765202|    0.823516|    0.012622|
|          43|   -4.078858|   -5.776853|    0.823414|    0.012636|
|          44|   -4.079845|   -5.785236|    0.823301|    0.012650|
|          45|   -4.080843|   -5.790653|    0.823179|    0.012661|
|          46|   -4.081825|   -5.793543|    0.823049|    0.012672|
|          47|   -4.082756|   -5.794517|    0.822913|    0.012680|
|          48|   -4.083593|   -5.794017|    0.822773|    0.012686|
|          49|   -4.084285|   -5.792591|    0.822632|    0.012689|
|          50|   -4.084785|   -5.790661|    0.822490|    0.012690|
|          51|   -4.085052|   -5.788578|    0.822349|    0.012688|
|          52|   -4.085060|   -5.786648|    0.822212|    0.012684|
|          53|   -4.084802|   -5.785067|    0.822079|    0.012676|
|          54|   -4.084292|   -5.784079|    0.821952|    0.012666|
|          55|   -4.083560|   -5.783811|    0.821831|    0.012654|
|          56|   -4.082653|   -5.784324|    0.821717|    0.012639|
|          57|   -4.081620|   -5.785659|    0.821611|    0.012622|
|          58|   -4.080512|   -5.787790|    0.821512|    0.012603|
|          59|   -4.079369|   -5.790702|    0.821422|    0.012582|
|          60|   -4.078222|   -5.794293|    0.821339|    0.012560|
|          61|   -4.077086|   -5.798526|    0.821264|    0.012536|
|          62|   -4.075969|   -5.803318|    0.821196|    0.012511|
|          63|   -4.074870|   -5.808596|    0.821136|    0.012485|
|          64|   -4.073786|   -5.814270|    0.821082|    0.012459|
|          65|   -4.072719|   -5.820229|    0.821034|    0.012431|
|          66|   -4.071674|   -5.826409|    0.820992|    0.012404|
|          67|   -4.070662|   -5.832729|    0.820956|    0.012376|
|          68|   -4.069700|   -5.839084|    0.820924|    0.012347|
|          69|   -4.068807|   -5.845388|    0.820897|    0.012319|
|          70|   -4.068003|   -5.851588|    0.820874|    0.012290|
|          71|   -4.067307|   -5.857632|    0.820855|    0.012262|
|          72|   -4.066729|   -5.863480|    0.820840|    0.012234|
|          73|   -4.066280|   -5.869111|    0.820828|    0.012206|
|          74|   -4.065961|   -5.874502|    0.820819|    0.012178|
|          75|   -4.065771|   -5.879652|    0.820813|    0.012151|
|          76|   -4.065707|   -5.884564|    0.820809|    0.012124|
|          77|   -4.065764|   -5.889240|    0.820808|    0.012097|
|          78|   -4.065936|   -5.893681|    0.820808|    0.012071|
|          79|   -4.066220|   -5.897879|    0.820809|    0.012046|
|          80|   -4.066612|   -5.901817|    0.820811|    0.012021|
|          81|   -4.067107|   -5.905492|    0.820814|    0.011997|
|          82|   -4.067699|   -5.908929|    0.820817|    0.011973|
|          83|   -4.068378|   -5.912129|    0.820820|    0.011949|
|          84|   -4.069131|   -5.915131|    0.820823|    0.011926|
|          85|   -4.069939|   -5.917976|    0.820826|    0.011904|
|          86|   -4.070775|   -5.920710|    0.820827|    0.011881|
|          87|   -4.071612|   -5.923348|    0.820828|    0.011859|
|          88|   -4.072419|   -5.925961|    0.820829|    0.011838|
|          89|   -4.073164|   -5.928557|    0.820828|    0.011816|
|          90|   -4.073822|   -5.931174|    0.820827|    0.011795|
|          91|   -4.074372|   -5.933849|    0.820826|    0.011775|
|          92|   -4.074806|   -5.936630|    0.820824|    0.011754|
|          93|   -4.075121|   -5.939538|    0.820823|    0.011734|
|          94|   -4.075331|   -5.942582|    0.820822|    0.011715|
|          95|   -4.075461|   -5.945776|    0.820822|    0.011696|
|          96|   -4.075543|   -5.949144|    0.820823|    0.011678|
|          97|   -4.075621|   -5.952721|    0.820825|    0.011660|
|          98|   -4.075742|   -5.956499|    0.820830|    0.011643|
|          99|   -4.075956|   -5.960505|    0.820836|    0.011627|
|         100|   -4.076313|   -5.964758|    0.820845|    0.011612|
|         101|   -4.076857|   -5.969281|    0.820854|    0.011825|
+-----------------------------------------------------------------------+
|Fixed CL Mode                           |Value                         |
+-----------------------------------------------------------------------+
|Current CL                              |0.820854                      |
|Target CL                               |0.824                         |
|Previous AOA                            |2.78209                       |
|Changed AoA by                          |0.0157734                     |
+-----------------------------------------------------------------------+
+----------------------------------------------------------------+
|  Inner_Iter|    rms[Rho]|     rms[nu]|          CL|          CD|
+----------------------------------------------------------------+
|         102|   -1.995462|   -5.877610|    0.820869|    0.011812|
|         103|   -2.380356|   -5.926187|    0.820887|    0.011801|
|         104|   -2.626076|   -5.945310|    0.820908|    0.011791|
|         105|   -2.706177|   -5.958450|    0.820933|    0.011782|
|         106|   -2.760490|   -5.969746|    0.820960|    0.011775|
|         107|   -2.830753|   -5.980421|    0.820990|    0.011769|
|         108|   -2.917587|   -5.990659|    0.821023|    0.011765|
|         109|   -3.008005|   -6.000456|    0.821058|    0.011762|
|         110|   -3.084995|   -6.009951|    0.821096|    0.011761|
|         111|   -3.140029|   -6.019155|    0.821135|    0.011762|
|         112|   -3.175200|   -6.028085|    0.821175|    0.011763|
|         113|   -3.194963|   -6.036853|    0.821216|    0.011766|
|         114|   -3.203548|   -6.045658|    0.821258|    0.011770|
|         115|   -3.206844|   -6.054629|    0.821300|    0.011776|
|         116|   -3.211278|   -6.063774|    0.821342|    0.011782|
|         117|   -3.221097|   -6.073039|    0.821383|    0.011790|
|         118|   -3.237230|   -6.082422|    0.821424|    0.011798|
|         119|   -3.257840|   -6.091933|    0.821463|    0.011808|
|         120|   -3.279772|   -6.101651|    0.821501|    0.011818|
|         121|   -3.300352|   -6.111516|    0.821537|    0.011829|
|         122|   -3.318688|   -6.121417|    0.821572|    0.011840|
|         123|   -3.335614|   -6.131238|    0.821604|    0.011852|
|         124|   -3.352550|   -6.140858|    0.821635|    0.011865|
|         125|   -3.370394|   -6.150105|    0.821664|    0.011877|
|         126|   -3.389135|   -6.158874|    0.821691|    0.011891|
|         127|   -3.408056|   -6.167049|    0.821717|    0.011904|
|         128|   -3.426159|   -6.174542|    0.821741|    0.011918|
|         129|   -3.442497|   -6.181310|    0.821764|    0.011933|
|         130|   -3.456377|   -6.187421|    0.821785|    0.011947|
|         131|   -3.467499|   -6.192882|    0.821806|    0.011962|
|         132|   -3.476063|   -6.197779|    0.821827|    0.011977|
|         133|   -3.482773|   -6.202175|    0.821847|    0.011993|
|         134|   -3.488681|   -6.206161|    0.821867|    0.012008|
|         135|   -3.494917|   -6.209753|    0.821888|    0.012024|
|         136|   -3.502424|   -6.212984|    0.821909|    0.012040|
|         137|   -3.511791|   -6.215912|    0.821931|    0.012057|
|         138|   -3.523183|   -6.218533|    0.821955|    0.012073|
|         139|   -3.536343|   -6.220763|    0.821980|    0.012090|
|         140|   -3.550621|   -6.222603|    0.822007|    0.012108|
|         141|   -3.565072|   -6.224072|    0.822035|    0.012125|
|         142|   -3.578626|   -6.225178|    0.822067|    0.012143|
|         143|   -3.590353|   -6.225931|    0.822100|    0.012161|
|         144|   -3.599742|   -6.226350|    0.822136|    0.012179|
|         145|   -3.606861|   -6.226465|    0.822175|    0.012197|
|         146|   -3.612320|   -6.226335|    0.822218|    0.012216|
|         147|   -3.617042|   -6.225817|    0.822263|    0.012234|
|         148|   -3.621974|   -6.224879|    0.822312|    0.012253|
|         149|   -3.627861|   -6.223560|    0.822365|    0.012272|
|         150|   -3.635116|   -6.221735|    0.822421|    0.012291|
|         151|   -3.643808|   -6.219371|    0.822482|    0.012311|
|         152|   -3.653708|   -6.216482|    0.822547|    0.012330|
|         153|   -3.664380|   -6.213150|    0.822616|    0.012349|
|         154|   -3.675296|   -6.209392|    0.822689|    0.012368|
|         155|   -3.685954|   -6.205275|    0.822767|    0.012388|
|         156|   -3.695977|   -6.200871|    0.822848|    0.012407|
|         157|   -3.705176|   -6.196271|    0.822934|    0.012426|
|         158|   -3.713554|   -6.191576|    0.823024|    0.012444|
|         159|   -3.721269|   -6.186874|    0.823118|    0.012463|
|         160|   -3.728557|   -6.182260|    0.823216|    0.012481|
|         161|   -3.735668|   -6.177861|    0.823316|    0.012499|
|         162|   -3.742805|   -6.173792|    0.823420|    0.012517|
|         163|   -3.750103|   -6.170145|    0.823526|    0.012534|
|         164|   -3.757619|   -6.167022|    0.823634|    0.012550|
|         165|   -3.765352|   -6.164435|    0.823743|    0.012566|
|         166|   -3.773262|   -6.162478|    0.823854|    0.012581|
|         167|   -3.781293|   -6.161212|    0.823965|    0.012596|
|         168|   -3.789389|   -6.160704|    0.824075|    0.012610|
|         169|   -3.797505|   -6.160951|    0.824184|    0.012623|
|         170|   -3.805607|   -6.161964|    0.824291|    0.012635|
|         171|   -3.813670|   -6.163751|    0.824396|    0.012646|
|         172|   -3.821672|   -6.166241|    0.824497|    0.012656|
|         173|   -3.829585|   -6.169373|    0.824595|    0.012665|
|         174|   -3.837375|   -6.173077|    0.824688|    0.012673|
|         175|   -3.844998|   -6.177249|    0.824776|    0.012681|
|         176|   -3.852401|   -6.181787|    0.824858|    0.012687|
|         177|   -3.859526|   -6.186554|    0.824933|    0.012691|
|         178|   -3.866315|   -6.191414|    0.825002|    0.012695|
|         179|   -3.872713|   -6.196205|    0.825063|    0.012698|
|         180|   -3.878672|   -6.200784|    0.825117|    0.012700|
|         181|   -3.884155|   -6.205023|    0.825162|    0.012700|
|         182|   -3.889135|   -6.208812|    0.825200|    0.012699|
|         183|   -3.893603|   -6.212052|    0.825229|    0.012698|
|         184|   -3.897560|   -6.214676|    0.825250|    0.012695|
|         185|   -3.901024|   -6.216673|    0.825263|    0.012691|
|         186|   -3.904028|   -6.218050|    0.825268|    0.012687|
|         187|   -3.906618|   -6.218896|    0.825265|    0.012681|
|         188|   -3.908849|   -6.219344|    0.825255|    0.012674|
|         189|   -3.910789|   -6.219434|    0.825237|    0.012667|
|         190|   -3.912511|   -6.219300|    0.825212|    0.012659|
|         191|   -3.914091|   -6.219093|    0.825181|    0.012649|
|         192|   -3.915607|   -6.218993|    0.825143|    0.012640|
|         193|   -3.917131|   -6.219187|    0.825100|    0.012629|
|         194|   -3.918733|   -6.219801|    0.825052|    0.012618|
|         195|   -3.920474|   -6.220987|    0.825000|    0.012606|
|         196|   -3.922406|   -6.222851|    0.824943|    0.012594|
|         197|   -3.924571|   -6.225491|    0.824882|    0.012581|
|         198|   -3.926999|   -6.228987|    0.824819|    0.012568|
|         199|   -3.929710|   -6.233391|    0.824753|    0.012554|
|         200|   -3.932712|   -6.238755|    0.824684|    0.012540|
|         201|   -3.936000|   -6.245064|    0.824615|    0.012476|
+-----------------------------------------------------------------------+
|Fixed CL Mode                           |Value                         |
+-----------------------------------------------------------------------+
|Current CL                              |0.824615                      |
|Target CL                               |0.824                         |
|Previous AOA                            |2.79786                       |
|Changed AoA by                          |-0.00342169                   |
+-----------------------------------------------------------------------+
+----------------------------------------------------------------+
|  Inner_Iter|    rms[Rho]|     rms[nu]|          CL|          CD|
+----------------------------------------------------------------+
|         202|   -2.658683|   -6.232670|    0.824545|    0.012461|
|         203|   -3.042993|   -6.250407|    0.824473|    0.012446|
|         204|   -3.287504|   -6.262066|    0.824402|    0.012431|
|         205|   -3.365403|   -6.273158|    0.824330|    0.012416|
|         206|   -3.416193|   -6.284485|    0.824260|    0.012401|
|         207|   -3.480787|   -6.296126|    0.824191|    0.012385|
|         208|   -3.558195|   -6.307985|    0.824123|    0.012370|
|         209|   -3.634127|   -6.319900|    0.824057|    0.012354|
|         210|   -3.692973|   -6.331682|    0.823994|    0.012339|
|         211|   -3.730123|   -6.343078|    0.823933|    0.012324|
|         212|   -3.750702|   -6.353813|    0.823876|    0.012309|
|         213|   -3.760538|   -6.363638|    0.823822|    0.012294|
|         214|   -3.763886|   -6.372353|    0.823771|    0.012279|
|         215|   -3.764926|   -6.379788|    0.823725|    0.012265|
|         216|   -3.767520|   -6.385800|    0.823682|    0.012251|
|         217|   -3.773906|   -6.390299|    0.823645|    0.012238|
|         218|   -3.784124|   -6.393269|    0.823612|    0.012225|
|         219|   -3.796489|   -6.394836|    0.823584|    0.012213|
|         220|   -3.808720|   -6.395107|    0.823561|    0.012201|
|         221|   -3.819162|   -6.394256|    0.823543|    0.012190|
|         222|   -3.827442|   -6.392505|    0.823530|    0.012179|
|         223|   -3.834222|   -6.390091|    0.823523|    0.012170|
|         224|   -3.840451|   -6.387262|    0.823521|    0.012160|
|         225|   -3.846777|   -6.384265|    0.823524|    0.012152|
|         226|   -3.853392|   -6.381348|    0.823533|    0.012144|
|         227|   -3.860178|   -6.378653|    0.823547|    0.012137|
|         228|   -3.866897|   -6.376354|    0.823566|    0.012131|
|         229|   -3.873312|   -6.374604|    0.823589|    0.012126|
|         230|   -3.879238|   -6.373526|    0.823618|    0.012121|
|         231|   -3.884567|   -6.373216|    0.823651|    0.012118|
|         232|   -3.889313|   -6.373741|    0.823688|    0.012115|
|         233|   -3.893630|   -6.375156|    0.823729|    0.012112|
|         234|   -3.897794|   -6.377478|    0.823774|    0.012111|
|         235|   -3.902138|   -6.380719|    0.823821|    0.012110|
|         236|   -3.906971|   -6.384852|    0.823872|    0.012110|
|         237|   -3.912511|   -6.389832|    0.823925|    0.012111|
|         238|   -3.918848|   -6.395590|    0.823980|    0.012112|
|         239|   -3.925934|   -6.402022|    0.824037|    0.012114|
|         240|   -3.933594|   -6.409014|    0.824094|    0.012117|
|         241|   -3.941568|   -6.416414|    0.824153|    0.012120|
|         242|   -3.949560|   -6.424053|    0.824212|    0.012123|
|         243|   -3.957310|   -6.431742|    0.824271|    0.012127|
|         244|   -3.964648|   -6.439275|    0.824329|    0.012132|
|         245|   -3.971534|   -6.446457|    0.824386|    0.012137|
|         246|   -3.978049|   -6.453081|    0.824442|    0.012142|
|         247|   -3.984359|   -6.458943|    0.824496|    0.012147|
|         248|   -3.990651|   -6.463877|    0.824548|    0.012153|
|         249|   -3.997084|   -6.467760|    0.824597|    0.012158|
|         250|   -4.003742|   -6.470512|    0.824644|    0.012164|
|         251|   -4.010626|   -6.472113|    0.824687|    0.012170|
|         252|   -4.017663|   -6.472604|    0.824727|    0.012176|
|         253|   -4.024727|   -6.472087|    0.824764|    0.012182|
|         254|   -4.031677|   -6.470694|    0.824796|    0.012188|
|         255|   -4.038383|   -6.468595|    0.824825|    0.012194|
|         256|   -4.044756|   -6.465956|    0.824850|    0.012200|
|         257|   -4.050751|   -6.462942|    0.824870|    0.012205|
|         258|   -4.056371|   -6.459719|    0.824887|    0.012211|
|         259|   -4.061650|   -6.456436|    0.824900|    0.012216|
|         260|   -4.066639|   -6.453213|    0.824908|    0.012221|
|         261|   -4.071387|   -6.450143|    0.824913|    0.012226|
|         262|   -4.075933|   -6.447299|    0.824914|    0.012231|
|         263|   -4.080293|   -6.444722|    0.824912|    0.012236|
|         264|   -4.084467|   -6.442421|    0.824907|    0.012240|
|         265|   -4.088437|   -6.440382|    0.824899|    0.012244|
|         266|   -4.092175|   -6.438566|    0.824888|    0.012248|
|         267|   -4.095647|   -6.436923|    0.824875|    0.012252|
|         268|   -4.098821|   -6.435387|    0.824860|    0.012256|
|         269|   -4.101662|   -6.433871|    0.824844|    0.012259|
|         270|   -4.104142|   -6.432289|    0.824826|    0.012263|
|         271|   -4.106235|   -6.430548|    0.824808|    0.012266|
|         272|   -4.107918|   -6.428560|    0.824789|    0.012269|
|         273|   -4.109174|   -6.426251|    0.824770|    0.012272|
|         274|   -4.109989|   -6.423558|    0.824751|    0.012275|
|         275|   -4.110356|   -6.420439|    0.824733|    0.012278|
|         276|   -4.110274|   -6.416877|    0.824715|    0.012281|
|         277|   -4.109748|   -6.412863|    0.824699|    0.012284|
|         278|   -4.108793|   -6.408430|    0.824684|    0.012287|
|         279|   -4.107433|   -6.403645|    0.824670|    0.012290|
|         280|   -4.105697|   -6.398588|    0.824658|    0.012293|
|         281|   -4.103623|   -6.393338|    0.824648|    0.012296|
|         282|   -4.101251|   -6.387981|    0.824640|    0.012299|
|         283|   -4.098627|   -6.382599|    0.824634|    0.012301|
|         284|   -4.095800|   -6.377279|    0.824629|    0.012304|
|         285|   -4.092818|   -6.372103|    0.824627|    0.012307|
|         286|   -4.089729|   -6.367147|    0.824627|    0.012310|
|         287|   -4.086582|   -6.362473|    0.824628|    0.012312|
|         288|   -4.083422|   -6.358135|    0.824631|    0.012315|
|         289|   -4.080291|   -6.354176|    0.824636|    0.012317|
|         290|   -4.077229|   -6.350622|    0.824642|    0.012319|
|         291|   -4.074273|   -6.347487|    0.824650|    0.012321|
|         292|   -4.071453|   -6.344776|    0.824659|    0.012323|
|         293|   -4.068799|   -6.342479|    0.824669|    0.012325|
|         294|   -4.066335|   -6.340576|    0.824680|    0.012327|
|         295|   -4.064082|   -6.339040|    0.824691|    0.012328|
|         296|   -4.062057|   -6.337832|    0.824704|    0.012329|
|         297|   -4.060274|   -6.336909|    0.824717|    0.012330|
|         298|   -4.058743|   -6.336229|    0.824730|    0.012331|
|         299|   -4.057472|   -6.335744|    0.824743|    0.012331|
|         300|   -4.056466|   -6.335407|    0.824757|    0.012331|
|         301|   -4.055729|   -6.335174|    0.824772|    0.012276|
+-----------------------------------------------------------------------+
|Fixed CL Mode                           |Value                         |
+-----------------------------------------------------------------------+
|Current CL                              |0.824772                      |
|Target CL                               |0.824                         |
|Previous AOA                            |2.79444                       |
|Changed AoA by                          |-0.00378544                   |
+-----------------------------------------------------------------------+
+----------------------------------------------------------------+
|  Inner_Iter|    rms[Rho]|     rms[nu]|          CL|          CD|
+----------------------------------------------------------------+
|         302|   -2.614931|   -6.300208|    0.824785|    0.012275|
|         303|   -2.998309|   -6.317283|    0.824799|    0.012275|
|         304|   -3.240462|   -6.322480|    0.824812|    0.012273|
|         305|   -3.318396|   -6.325193|    0.824826|    0.012272|
|         306|   -3.370688|   -6.326920|    0.824839|    0.012270|
|         307|   -3.437413|   -6.328040|    0.824852|    0.012267|
|         308|   -3.518133|   -6.328710|    0.824864|    0.012265|
|         309|   -3.599511|   -6.329042|    0.824876|    0.012262|
|         310|   -3.666128|   -6.329119|    0.824888|    0.012258|
|         311|   -3.712178|   -6.328993|    0.824900|    0.012255|
|         312|   -3.741189|   -6.328710|    0.824912|    0.012251|
|         313|   -3.757757|   -6.328336|    0.824923|    0.012247|
|         314|   -3.765558|   -6.327949|    0.824934|    0.012242|
|         315|   -3.769183|   -6.327616|    0.824945|    0.012238|
|         316|   -3.773574|   -6.327370|    0.824956|    0.012233|
|         317|   -3.782010|   -6.327224|    0.824967|    0.012228|
|         318|   -3.795163|   -6.327191|    0.824977|    0.012223|
|         319|   -3.811545|   -6.327281|    0.824988|    0.012217|
|         320|   -3.828758|   -6.327518|    0.824998|    0.012212|
|         321|   -3.844915|   -6.327919|    0.825009|    0.012206|
|         322|   -3.859496|   -6.328494|    0.825019|    0.012200|
|         323|   -3.873154|   -6.329242|    0.825029|    0.012195|
|         324|   -3.886851|   -6.330154|    0.825040|    0.012189|
|         325|   -3.901106|   -6.331224|    0.825050|    0.012183|
|         326|   -3.915781|   -6.332447|    0.825060|    0.012177|
|         327|   -3.930287|   -6.333825|    0.825070|    0.012172|
|         328|   -3.943907|   -6.335360|    0.825080|    0.012166|
|         329|   -3.956039|   -6.337050|    0.825090|    0.012161|
|         330|   -3.966315|   -6.338899|    0.825100|    0.012155|
|         331|   -3.974656|   -6.340910|    0.825110|    0.012150|
|         332|   -3.981286|   -6.343081|    0.825120|    0.012145|
|         333|   -3.986707|   -6.345412|    0.825129|    0.012140|
|         334|   -3.991591|   -6.347894|    0.825138|    0.012135|
|         335|   -3.996613|   -6.350515|    0.825147|    0.012131|
|         336|   -4.002302|   -6.353255|    0.825155|    0.012126|
|         337|   -4.008945|   -6.356115|    0.825163|    0.012122|
|         338|   -4.016550|   -6.359083|    0.825171|    0.012119|
|         339|   -4.024862|   -6.362143|    0.825179|    0.012115|
|         340|   -4.033422|   -6.365282|    0.825185|    0.012112|
|         341|   -4.041652|   -6.368489|    0.825192|    0.012109|
|         342|   -4.048979|   -6.371754|    0.825198|    0.012106|
|         343|   -4.054975|   -6.375071|    0.825203|    0.012104|
|         344|   -4.059469|   -6.378435|    0.825208|    0.012101|
|         345|   -4.062584|   -6.381844|    0.825212|    0.012100|
|         346|   -4.064680|   -6.385294|    0.825215|    0.012098|
|         347|   -4.066234|   -6.388789|    0.825218|    0.012097|
|         348|   -4.067705|   -6.392320|    0.825220|    0.012096|
|         349|   -4.069428|   -6.395886|    0.825221|    0.012095|
|         350|   -4.071574|   -6.399486|    0.825221|    0.012095|
|         351|   -4.074140|   -6.403124|    0.825221|    0.012094|
|         352|   -4.076997|   -6.406795|    0.825219|    0.012094|
|         353|   -4.079946|   -6.410510|    0.825216|    0.012094|
|         354|   -4.082778|   -6.414278|    0.825213|    0.012095|
|         355|   -4.085329|   -6.418107|    0.825208|    0.012095|
|         356|   -4.087507|   -6.422001|    0.825202|    0.012096|
|         357|   -4.089306|   -6.425957|    0.825195|    0.012097|
|         358|   -4.090788|   -6.429973|    0.825186|    0.012098|
|         359|   -4.092061|   -6.434056|    0.825177|    0.012100|
|         360|   -4.093249|   -6.438215|    0.825167|    0.012101|
|         361|   -4.094466|   -6.442461|    0.825155|    0.012102|
|         362|   -4.095805|   -6.446809|    0.825142|    0.012104|
|         363|   -4.097330|   -6.451269|    0.825129|    0.012106|
|         364|   -4.099080|   -6.455835|    0.825114|    0.012107|
|         365|   -4.101076|   -6.460527|    0.825099|    0.012109|
|         366|   -4.103328|   -6.465363|    0.825082|    0.012111|
|         367|   -4.105843|   -6.470352|    0.825065|    0.012113|
|         368|   -4.108630|   -6.475509|    0.825048|    0.012115|
|         369|   -4.111698|   -6.480845|    0.825030|    0.012117|
|         370|   -4.115062|   -6.486368|    0.825012|    0.012119|
|         371|   -4.118737|   -6.492081|    0.824994|    0.012121|
|         372|   -4.122737|   -6.498000|    0.824975|    0.012123|
|         373|   -4.127073|   -6.504128|    0.824957|    0.012125|
|         374|   -4.131753|   -6.510461|    0.824939|    0.012127|
|         375|   -4.136781|   -6.516995|    0.824922|    0.012129|
|         376|   -4.142157|   -6.523718|    0.824904|    0.012131|
|         377|   -4.147877|   -6.530614|    0.824888|    0.012133|
|         378|   -4.153934|   -6.537659|    0.824872|    0.012134|
|         379|   -4.160317|   -6.544822|    0.824857|    0.012136|
|         380|   -4.167014|   -6.552064|    0.824843|    0.012138|
|         381|   -4.174009|   -6.559332|    0.824831|    0.012139|
|         382|   -4.181283|   -6.566576|    0.824819|    0.012141|
|         383|   -4.188813|   -6.573740|    0.824808|    0.012142|
|         384|   -4.196575|   -6.580765|    0.824798|    0.012144|
|         385|   -4.204538|   -6.587592|    0.824790|    0.012145|
|         386|   -4.212668|   -6.594161|    0.824782|    0.012146|
|         387|   -4.220929|   -6.600411|    0.824776|    0.012147|
|         388|   -4.229276|   -6.606322|    0.824771|    0.012148|
|         389|   -4.237665|   -6.611884|    0.824767|    0.012148|
|         390|   -4.246046|   -6.617091|    0.824765|    0.012149|
|         391|   -4.254364|   -6.621946|    0.824763|    0.012149|
|         392|   -4.262564|   -6.626457|    0.824762|    0.012150|
|         393|   -4.270587|   -6.630664|    0.824762|    0.012150|
|         394|   -4.278372|   -6.634611|    0.824763|    0.012150|
|         395|   -4.285858|   -6.638360|    0.824765|    0.012150|
|         396|   -4.292986|   -6.641979|    0.824768|    0.012150|
|         397|   -4.299697|   -6.645551|    0.824771|    0.012149|
|         398|   -4.305938|   -6.649161|    0.824775|    0.012149|
|         399|   -4.311661|   -6.652888|    0.824780|    0.012148|
|         400|   -4.316826|   -6.656811|    0.824785|    0.012148|
|         401|   -4.321401|   -6.660999|    0.824791|    0.012091|
+-----------------------------------------------------------------------+
|Fixed CL Mode                           |Value                         |
+-----------------------------------------------------------------------+
|Current CL                              |0.824791                      |
|Target CL                               |0.824                         |
|Previous AOA                            |2.79065                       |
|Changed AoA by                          |-0.00392393                   |
+-----------------------------------------------------------------------+
+----------------------------------------------------------------+
|  Inner_Iter|    rms[Rho]|     rms[nu]|          CL|          CD|
+----------------------------------------------------------------+
|         402|   -2.599602|   -6.532210|    0.824797|    0.012090|
|         403|   -2.983448|   -6.594006|    0.824804|    0.012089|
|         404|   -3.225849|   -6.618684|    0.824810|    0.012088|
|         405|   -3.303904|   -6.635378|    0.824817|    0.012087|
|         406|   -3.357262|   -6.649464|    0.824825|    0.012086|
|         407|   -3.426448|   -6.662233|    0.824832|    0.012085|
|         408|   -3.511769|   -6.674094|    0.824839|    0.012084|
|         409|   -3.600549|   -6.685283|    0.824847|    0.012083|
|         410|   -3.676641|   -6.695940|    0.824854|    0.012082|
|         411|   -3.732059|   -6.706059|    0.824862|    0.012081|
|         412|   -3.768537|   -6.715617|    0.824869|    0.012080|
|         413|   -3.789839|   -6.724769|    0.824876|    0.012079|
|         414|   -3.799642|   -6.733775|    0.824882|    0.012078|
|         415|   -3.803508|   -6.742835|    0.824889|    0.012077|
|         416|   -3.807764|   -6.751956|    0.824895|    0.012076|
|         417|   -3.816686|   -6.761029|    0.824901|    0.012076|
|         418|   -3.831287|   -6.769966|    0.824906|    0.012075|
|         419|   -3.849881|   -6.778763|    0.824911|    0.012074|
|         420|   -3.869560|   -6.787451|    0.824915|    0.012074|
|         421|   -3.887943|   -6.796053|    0.824919|    0.012073|
|         422|   -3.904328|   -6.804515|    0.824922|    0.012073|
|         423|   -3.919537|   -6.812697|    0.824924|    0.012072|
|         424|   -3.934821|   -6.820413|    0.824926|    0.012072|
|         425|   -3.950877|   -6.827457|    0.824927|    0.012071|
|         426|   -3.967552|   -6.833681|    0.824928|    0.012071|
|         427|   -3.984081|   -6.838993|    0.824928|    0.012071|
|         428|   -3.999522|   -6.843317|    0.824927|    0.012071|
|         429|   -4.013071|   -6.846655|    0.824926|    0.012071|
|         430|   -4.024244|   -6.849078|    0.824924|    0.012071|
|         431|   -4.032955|   -6.850653|    0.824922|    0.012071|
|         432|   -4.039548|   -6.851496|    0.824919|    0.012071|
|         433|   -4.044748|   -6.851722|    0.824915|    0.012071|
|         434|   -4.049508|   -6.851450|    0.824911|    0.012071|
|         435|   -4.054782|   -6.850799|    0.824906|    0.012072|
|         436|   -4.061323|   -6.849844|    0.824901|    0.012072|
|         437|   -4.069565|   -6.848644|    0.824895|    0.012073|
|         438|   -4.079584|   -6.847235|    0.824889|    0.012073|
|         439|   -4.091104|   -6.845646|    0.824882|    0.012074|
|         440|   -4.103553|   -6.843886|    0.824875|    0.012075|
|         441|   -4.116147|   -6.842020|    0.824867|    0.012076|
|         442|   -4.128047|   -6.840062|    0.824859|    0.012077|
|         443|   -4.138559|   -6.838013|    0.824850|    0.012078|
|         444|   -4.147327|   -6.835900|    0.824842|    0.012079|
|         445|   -4.154441|   -6.833754|    0.824832|    0.012080|
|         446|   -4.160388|   -6.831587|    0.824822|    0.012081|
|         447|   -4.165887|   -6.829443|    0.824812|    0.012083|
|         448|   -4.171675|   -6.827374|    0.824802|    0.012084|
|         449|   -4.178334|   -6.825285|    0.824790|    0.012086|
|         450|   -4.186191|   -6.823160|    0.824779|    0.012087|
|         451|   -4.195304|   -6.820977|    0.824766|    0.012089|
|         452|   -4.205495|   -6.818732|    0.824753|    0.012091|
|         453|   -4.216421|   -6.816409|    0.824739|    0.012092|
|         454|   -4.227667|   -6.813971|    0.824725|    0.012094|
|         455|   -4.238836|   -6.811407|    0.824709|    0.012096|
|         456|   -4.249627|   -6.808727|    0.824693|    0.012098|
|         457|   -4.259881|   -6.805848|    0.824676|    0.012100|
|         458|   -4.269584|   -6.802748|    0.824658|    0.012102|
|         459|   -4.278840|   -6.799459|    0.824639|    0.012104|
|         460|   -4.287817|   -6.796016|    0.824619|    0.012106|
|         461|   -4.296693|   -6.792454|    0.824598|    0.012108|
|         462|   -4.305612|   -6.788849|    0.824577|    0.012110|
|         463|   -4.314664|   -6.785279|    0.824554|    0.012112|
|         464|   -4.323879|   -6.781825|    0.824531|    0.012114|
|         465|   -4.333239|   -6.778583|    0.824507|    0.012116|
|         466|   -4.342692|   -6.775631|    0.824483|    0.012118|
|         467|   -4.352175|   -6.773067|    0.824458|    0.012120|
|         468|   -4.361624|   -6.770985|    0.824433|    0.012122|
|         469|   -4.370986|   -6.769466|    0.824408|    0.012123|
|         470|   -4.380220|   -6.768595|    0.824383|    0.012125|
|         471|   -4.389292|   -6.768432|    0.824358|    0.012127|
|         472|   -4.398173|   -6.769026|    0.824333|    0.012129|
|         473|   -4.406834|   -6.770404|    0.824309|    0.012130|
|         474|   -4.415239|   -6.772568|    0.824286|    0.012132|
|         475|   -4.423350|   -6.775500|    0.824263|    0.012133|
|         476|   -4.431124|   -6.779156|    0.824242|    0.012134|
|         477|   -4.438520|   -6.783465|    0.824221|    0.012135|
|         478|   -4.445501|   -6.788332|    0.824202|    0.012137|
|         479|   -4.452038|   -6.793630|    0.824185|    0.012138|
|         480|   -4.458115|   -6.799203|    0.824169|    0.012139|
|         481|   -4.463727|   -6.804874|    0.824155|    0.012139|
|         482|   -4.468885|   -6.810444|    0.824142|    0.012140|
|         483|   -4.473608|   -6.815702|    0.824132|    0.012141|
|         484|   -4.477931|   -6.820435|    0.824123|    0.012141|
|         485|   -4.481898|   -6.824440|    0.824117|    0.012141|
|         486|   -4.485557|   -6.827549|    0.824112|    0.012142|
|         487|   -4.488966|   -6.829639|    0.824110|    0.012142|
|         488|   -4.492185|   -6.830639|    0.824109|    0.012142|
|         489|   -4.495275|   -6.830536|    0.824110|    0.012141|
|         490|   -4.498300|   -6.829376|    0.824113|    0.012141|
|         491|   -4.501319|   -6.827288|    0.824118|    0.012140|
|         492|   -4.504391|   -6.824439|    0.824125|    0.012139|
|         493|   -4.507569|   -6.821027|    0.824133|    0.012139|
|         494|   -4.510900|   -6.817263|    0.824143|    0.012137|
|         495|   -4.514427|   -6.813360|    0.824154|    0.012136|
|         496|   -4.518185|   -6.809518|    0.824167|    0.012135|
|         497|   -4.522201|   -6.805921|    0.824180|    0.012133|
|         498|   -4.526496|   -6.802723|    0.824195|    0.012131|
|         499|   -4.531084|   -6.800049|    0.824211|    0.012129|
|         500|   -4.535973|   -6.797994|    0.824228|    0.012127|
|         501|   -4.541161|   -6.796622|    0.824246|    0.012109|
+-----------------------------------------------------------------------+
|Fixed CL Mode                           |Value                         |
+-----------------------------------------------------------------------+
|Current CL                              |0.824246                      |
|Target CL                               |0.824                         |
|Previous AOA                            |2.78673                       |
|Changed AoA by                          |-0.00113959                   |
+-----------------------------------------------------------------------+
+----------------------------------------------------------------+
|  Inner_Iter|    rms[Rho]|     rms[nu]|          CL|          CD|
+----------------------------------------------------------------+
|         502|   -3.136316|   -6.768946|    0.824264|    0.012106|
|         503|   -3.517611|   -6.782162|    0.824283|    0.012104|
|         504|   -3.752821|   -6.786828|    0.824302|    0.012101|
|         505|   -3.826856|   -6.790372|    0.824321|    0.012099|
|         506|   -3.878195|   -6.793892|    0.824340|    0.012096|
|         507|   -3.944676|   -6.797558|    0.824360|    0.012093|
|         508|   -4.025813|   -6.801335|    0.824379|    0.012090|
|         509|   -4.109445|   -6.805140|    0.824399|    0.012087|
|         510|   -4.181331|   -6.808867|    0.824418|    0.012084|
|         511|   -4.235177|   -6.812387|    0.824436|    0.012081|
|         512|   -4.272683|   -6.815579|    0.824454|    0.012077|
|         513|   -4.296649|   -6.818355|    0.824472|    0.012074|
|         514|   -4.309634|   -6.820660|    0.824489|    0.012071|
|         515|   -4.316164|   -6.822449|    0.824505|    0.012068|
|         516|   -4.321950|   -6.823685|    0.824520|    0.012064|
|         517|   -4.331158|   -6.824350|    0.824534|    0.012061|
|         518|   -4.345032|   -6.824456|    0.824548|    0.012058|
|         519|   -4.362310|   -6.824056|    0.824560|    0.012054|
|         520|   -4.380604|   -6.823232|    0.824571|    0.012051|
|         521|   -4.397969|   -6.822080|    0.824581|    0.012048|
|         522|   -4.413868|   -6.820703|    0.824590|    0.012045|
|         523|   -4.428969|   -6.819196|    0.824598|    0.012042|
|         524|   -4.444205|   -6.817651|    0.824605|    0.012038|
|         525|   -4.459953|   -6.816153|    0.824610|    0.012035|
|         526|   -4.475819|   -6.814779|    0.824614|    0.012033|
|         527|   -4.490911|   -6.813602|    0.824617|    0.012030|
|         528|   -4.504273|   -6.812686|    0.824620|    0.012027|
|         529|   -4.515212|   -6.812077|    0.824620|    0.012024|
|         530|   -4.523452|   -6.811806|    0.824620|    0.012022|
|         531|   -4.529151|   -6.811892|    0.824619|    0.012020|
|         532|   -4.532844|   -6.812341|    0.824617|    0.012017|
|         533|   -4.535332|   -6.813142|    0.824614|    0.012015|
|         534|   -4.537498|   -6.814266|    0.824610|    0.012013|
|         535|   -4.540128|   -6.815673|    0.824605|    0.012012|
|         536|   -4.543762|   -6.817314|    0.824600|    0.012010|
|         537|   -4.548630|   -6.819136|    0.824594|    0.012009|
|         538|   -4.554653|   -6.821077|    0.824587|    0.012007|
|         539|   -4.561486|   -6.823076|    0.824580|    0.012006|
|         540|   -4.568597|   -6.825076|    0.824572|    0.012006|
|         541|   -4.575372|   -6.827025|    0.824564|    0.012005|
|         542|   -4.581251|   -6.828881|    0.824556|    0.012005|
|         543|   -4.585860|   -6.830614|    0.824547|    0.012005|
|         544|   -4.589115|   -6.832208|    0.824538|    0.012005|
|         545|   -4.591230|   -6.833662|    0.824529|    0.012005|
|         546|   -4.592646|   -6.834984|    0.824520|    0.012006|
|         547|   -4.593898|   -6.836196|    0.824511|    0.012007|
|         548|   -4.595476|   -6.837325|    0.824502|    0.012008|
|         549|   -4.597733|   -6.838407|    0.824492|    0.012009|
|         550|   -4.600843|   -6.839485|    0.824483|    0.012011|
|         551|   -4.604804|   -6.840593|    0.824474|    0.012013|
|         552|   -4.609480|   -6.841765|    0.824464|    0.012015|
|         553|   -4.614655|   -6.843033|    0.824455|    0.012017|
|         554|   -4.620099|   -6.844419|    0.824445|    0.012020|
|         555|   -4.625613|   -6.845924|    0.824436|    0.012023|
|         556|   -4.631067|   -6.847545|    0.824426|    0.012026|
|         557|   -4.636411|   -6.849266|    0.824417|    0.012029|
|         558|   -4.641667|   -6.851061|    0.824407|    0.012032|
|         559|   -4.646906|   -6.852895|    0.824397|    0.012036|
|         560|   -4.652219|   -6.854725|    0.824388|    0.012040|
|         561|   -4.657691|   -6.856503|    0.824377|    0.012044|
|         562|   -4.663385|   -6.858177|    0.824367|    0.012048|
|         563|   -4.669330|   -6.859699|    0.824357|    0.012052|
|         564|   -4.675529|   -6.861022|    0.824346|    0.012056|
|         565|   -4.681958|   -6.862111|    0.824335|    0.012061|
|         566|   -4.688577|   -6.862942|    0.824324|    0.012065|
|         567|   -4.695342|   -6.863507|    0.824313|    0.012070|
|         568|   -4.702205|   -6.863816|    0.824301|    0.012075|
|         569|   -4.709120|   -6.863892|    0.824290|    0.012080|
|         570|   -4.716045|   -6.863777|    0.824278|    0.012084|
|         571|   -4.722936|   -6.863524|    0.824266|    0.012089|
|         572|   -4.729745|   -6.863199|    0.824253|    0.012094|
|         573|   -4.736424|   -6.862871|    0.824241|    0.012099|
|         574|   -4.742916|   -6.862610|    0.824229|    0.012104|
|         575|   -4.749161|   -6.862487|    0.824216|    0.012108|
|         576|   -4.755095|   -6.862564|    0.824204|    0.012113|
|         577|   -4.760655|   -6.862899|    0.824191|    0.012118|
|         578|   -4.765781|   -6.863534|    0.824179|    0.012122|
|         579|   -4.770419|   -6.864505|    0.824167|    0.012127|
|         580|   -4.774524|   -6.865825|    0.824155|    0.012131|
|         581|   -4.778064|   -6.867495|    0.824143|    0.012135|
|         582|   -4.781021|   -6.869500|    0.824132|    0.012139|
|         583|   -4.783390|   -6.871809|    0.824121|    0.012143|
|         584|   -4.785185|   -6.874380|    0.824110|    0.012147|
|         585|   -4.786431|   -6.877156|    0.824099|    0.012150|
|         586|   -4.787168|   -6.880070|    0.824089|    0.012154|
|         587|   -4.787449|   -6.883048|    0.824080|    0.012157|
|         588|   -4.787334|   -6.886012|    0.824071|    0.012160|
|         589|   -4.786891|   -6.888884|    0.824062|    0.012163|
|         590|   -4.786195|   -6.891584|    0.824054|    0.012165|
|         591|   -4.785320|   -6.894045|    0.824047|    0.012168|
|         592|   -4.784342|   -6.896207|    0.824040|    0.012170|
|         593|   -4.783335|   -6.898028|    0.824033|    0.012172|
|         594|   -4.782369|   -6.899481|    0.824028|    0.012174|
|         595|   -4.781510|   -6.900557|    0.824022|    0.012175|
|         596|   -4.780820|   -6.901264|    0.824018|    0.012176|
|         597|   -4.780351|   -6.901626|    0.824014|    0.012177|
|         598|   -4.780155|   -6.901680|    0.824010|    0.012178|
|         599|   -4.780272|   -6.901470|    0.824007|    0.012179|
|         600|   -4.780739|   -6.901051|    0.824005|    0.012179|
|         601|   -4.781586|   -6.900475|    0.824003|    0.012179|
+-----------------------------------------------------------------------+
|Fixed CL Mode                           |Value                         |
+-----------------------------------------------------------------------+
|Current CL                              |0.824003                      |
|Target CL                               |0.824                         |
|Previous AOA                            |2.78559                       |
|Changed AoA by                          |-2.4025e-05                   |
+-----------------------------------------------------------------------+
+----------------------------------------------------------------+
|  Inner_Iter|    rms[Rho]|     rms[nu]|          CL|          CD|
+----------------------------------------------------------------+
|         602|   -4.647936|   -6.899763|    0.824001|    0.012179|
|         603|   -4.749638|   -6.899031|    0.824000|    0.012179|
|         604|   -4.767096|   -6.898271|    0.824000|    0.012179|
|         605|   -4.771416|   -6.897521|    0.824000|    0.012178|
|         606|   -4.776703|   -6.896797|    0.824000|    0.012178|
|         607|   -4.783435|   -6.896110|    0.824000|    0.012177|
|         608|   -4.790734|   -6.895457|    0.824001|    0.012175|
|         609|   -4.797983|   -6.894827|    0.824002|    0.012174|
|         610|   -4.804997|   -6.894203|    0.824003|    0.012173|
|         611|   -4.811833|   -6.893558|    0.824005|    0.012171|
|         612|   -4.818579|   -6.892866|    0.824006|    0.012170|
|         613|   -4.825270|   -6.892100|    0.824008|    0.012168|
|         614|   -4.831911|   -6.891235|    0.824010|    0.012166|
|         615|   -4.838514|   -6.890252|    0.824011|    0.012164|
|         616|   -4.845100|   -6.889134|    0.824013|    0.012161|
|         617|   -4.851690|   -6.887875|    0.824015|    0.012159|
|         618|   -4.858292|   -6.886480|    0.824016|    0.012156|
|         619|   -4.864893|   -6.884960|    0.824018|    0.012154|
|         620|   -4.871461|   -6.883338|    0.824020|    0.012151|
|         621|   -4.877949|   -6.881644|    0.824021|    0.012148|
|         622|   -4.884300|   -6.879914|    0.824022|    0.012146|
|         623|   -4.890448|   -6.878189|    0.824024|    0.012143|
|         624|   -4.896320|   -6.876513|    0.824025|    0.012140|
|         625|   -4.901846|   -6.874928|    0.824026|    0.012137|
|         626|   -4.906961|   -6.873477|    0.824026|    0.012133|
|         627|   -4.911617|   -6.872200|    0.824027|    0.012130|
|         628|   -4.915787|   -6.871133|    0.824028|    0.012127|
|         629|   -4.919469|   -6.870305|    0.824028|    0.012124|
|         630|   -4.922678|   -6.869741|    0.824028|    0.012121|
|         631|   -4.925447|   -6.869460|    0.824029|    0.012117|
|         632|   -4.927819|   -6.869472|    0.824029|    0.012114|
|         633|   -4.929842|   -6.869782|    0.824029|    0.012111|
|         634|   -4.931563|   -6.870387|    0.824029|    0.012108|
|         635|   -4.933032|   -6.871281|    0.824030|    0.012105|
|         636|   -4.934295|   -6.872452|    0.824030|    0.012102|
|         637|   -4.935395|   -6.873883|    0.824030|    0.012099|
|         638|   -4.936376|   -6.875553|    0.824031|    0.012096|
|         639|   -4.937280|   -6.877441|    0.824031|    0.012093|
|         640|   -4.938149|   -6.879522|    0.824032|    0.012090|
|         641|   -4.939026|   -6.881773|    0.824033|    0.012087|
|         642|   -4.939950|   -6.884172|    0.824034|    0.012084|
|         643|   -4.940961|   -6.886699|    0.824035|    0.012082|
|         644|   -4.942096|   -6.889335|    0.824036|    0.012079|
|         645|   -4.943386|   -6.892067|    0.824038|    0.012077|
|         646|   -4.944860|   -6.894885|    0.824040|    0.012075|
|         647|   -4.946541|   -6.897783|    0.824042|    0.012073|
|         648|   -4.948447|   -6.900756|    0.824044|    0.012071|
|         649|   -4.950589|   -6.903804|    0.824047|    0.012069|
|         650|   -4.952975|   -6.906928|    0.824050|    0.012068|
|         651|   -4.955609|   -6.910134|    0.824053|    0.012066|
|         652|   -4.958489|   -6.913429|    0.824056|    0.012065|
|         653|   -4.961610|   -6.916823|    0.824059|    0.012064|
|         654|   -4.964966|   -6.920325|    0.824063|    0.012063|
|         655|   -4.968547|   -6.923946|    0.824067|    0.012062|
|         656|   -4.972342|   -6.927694|    0.824070|    0.012062|
|         657|   -4.976340|   -6.931579|    0.824074|    0.012062|
|         658|   -4.980526|   -6.935609|    0.824079|    0.012061|
|         659|   -4.984886|   -6.939789|    0.824083|    0.012061|
|         660|   -4.989406|   -6.944121|    0.824087|    0.012061|
|         661|   -4.994069|   -6.948605|    0.824091|    0.012062|
|         662|   -4.998859|   -6.953242|    0.824096|    0.012062|
|         663|   -5.003759|   -6.958030|    0.824100|    0.012063|
|         664|   -5.008752|   -6.962965|    0.824104|    0.012064|
|         665|   -5.013821|   -6.968041|    0.824108|    0.012065|
|         666|   -5.018950|   -6.973252|    0.824112|    0.012066|
|         667|   -5.024121|   -6.978591|    0.824116|    0.012067|
|         668|   -5.029319|   -6.984046|    0.824120|    0.012069|
|         669|   -5.034525|   -6.989606|    0.824124|    0.012070|
|         670|   -5.039725|   -6.995255|    0.824127|    0.012072|
|         671|   -5.044900|   -7.000980|    0.824130|    0.012074|
|         672|   -5.050033|   -7.006770|    0.824133|    0.012076|
|         673|   -5.055108|   -7.012613|    0.824136|    0.012078|
|         674|   -5.060105|   -7.018505|    0.824139|    0.012080|
|         675|   -5.065008|   -7.024440|    0.824141|    0.012082|
|         676|   -5.069798|   -7.030416|    0.824143|    0.012084|
|         677|   -5.074456|   -7.036430|    0.824145|    0.012087|
|         678|   -5.078965|   -7.042483|    0.824146|    0.012089|
|         679|   -5.083308|   -7.048574|    0.824148|    0.012092|
|         680|   -5.087468|   -7.054701|    0.824149|    0.012094|
|         681|   -5.091430|   -7.060860|    0.824149|    0.012097|
|         682|   -5.095184|   -7.067049|    0.824150|    0.012099|
|         683|   -5.098717|   -7.073258|    0.824150|    0.012102|
|         684|   -5.102024|   -7.079479|    0.824150|    0.012105|
|         685|   -5.105099|   -7.085699|    0.824150|    0.012107|
|         686|   -5.107945|   -7.091903|    0.824150|    0.012110|
|         687|   -5.110564|   -7.098073|    0.824149|    0.012113|
|         688|   -5.112967|   -7.104190|    0.824148|    0.012115|
|         689|   -5.115165|   -7.110232|    0.824148|    0.012118|
|         690|   -5.117176|   -7.116175|    0.824147|    0.012121|
|         691|   -5.119019|   -7.121997|    0.824145|    0.012123|
|         692|   -5.120720|   -7.127677|    0.824144|    0.012126|
|         693|   -5.122304|   -7.133193|    0.824143|    0.012128|
|         694|   -5.123801|   -7.138529|    0.824141|    0.012131|
|         695|   -5.125241|   -7.143670|    0.824139|    0.012133|
|         696|   -5.126655|   -7.148607|    0.824138|    0.012135|
|         697|   -5.128074|   -7.153334|    0.824136|    0.012138|
|         698|   -5.129530|   -7.157848|    0.824134|    0.012140|
|         699|   -5.131050|   -7.162155|    0.824132|    0.012142|
|         700|   -5.132660|   -7.166263|    0.824130|    0.012144|
|         701|   -5.134384|   -7.170187|    0.824128|    0.012137|
+-----------------------------------------------------------------------+
|Fixed CL Mode                           |Value                         |
+-----------------------------------------------------------------------+
|Current CL                              |0.824128                      |
|Target CL                               |0.824                         |
|Previous AOA                            |2.78557                       |
|Changed AoA by                          |-0.000649071                  |
+-----------------------------------------------------------------------+
+----------------------------------------------------------------+
|  Inner_Iter|    rms[Rho]|     rms[nu]|          CL|          CD|
+----------------------------------------------------------------+
|         702|   -3.381213|   -7.127491|    0.824126|    0.012138|
|         703|   -3.766648|   -7.153243|    0.824124|    0.012140|
|         704|   -4.012476|   -7.163270|    0.824121|    0.012142|
|         705|   -4.091130|   -7.170158|    0.824119|    0.012143|
|         706|   -4.143849|   -7.175977|    0.824117|    0.012145|
|         707|   -4.212532|   -7.181198|    0.824114|    0.012146|
|         708|   -4.297608|   -7.185947|    0.824112|    0.012147|
|         709|   -4.386182|   -7.190293|    0.824110|    0.012148|
|         710|   -4.461783|   -7.194288|    0.824107|    0.012149|
|         711|   -4.516324|   -7.197960|    0.824105|    0.012150|
|         712|   -4.551739|   -7.201359|    0.824102|    0.012151|
|         713|   -4.572089|   -7.204581|    0.824099|    0.012151|
|         714|   -4.581278|   -7.207753|    0.824097|    0.012152|
|         715|   -4.584960|   -7.210973|    0.824094|    0.012152|
|         716|   -4.589420|   -7.214290|    0.824092|    0.012153|
|         717|   -4.598850|   -7.217719|    0.824089|    0.012153|
|         718|   -4.614186|   -7.221267|    0.824086|    0.012153|
|         719|   -4.633649|   -7.224945|    0.824083|    0.012153|
|         720|   -4.654199|   -7.228772|    0.824081|    0.012152|
|         721|   -4.673303|   -7.232761|    0.824078|    0.012152|
|         722|   -4.690151|   -7.236906|    0.824075|    0.012152|
|         723|   -4.705559|   -7.241183|    0.824072|    0.012151|
|         724|   -4.720852|   -7.245564|    0.824070|    0.012150|
|         725|   -4.736831|   -7.250018|    0.824067|    0.012150|
|         726|   -4.753436|   -7.254517|    0.824064|    0.012149|
|         727|   -4.769976|   -7.259042|    0.824062|    0.012148|
|         728|   -4.785538|   -7.263586|    0.824059|    0.012147|
|         729|   -4.799311|   -7.268143|    0.824056|    0.012146|
|         730|   -4.810760|   -7.272710|    0.824054|    0.012145|
|         731|   -4.819726|   -7.277286|    0.824051|    0.012143|
|         732|   -4.826489|   -7.281869|    0.824048|    0.012142|
|         733|   -4.831740|   -7.286440|    0.824046|    0.012140|
|         734|   -4.836436|   -7.291014|    0.824043|    0.012139|
|         735|   -4.841560|   -7.295588|    0.824041|    0.012137|
|         736|   -4.847910|   -7.300162|    0.824038|    0.012136|
|         737|   -4.855960|   -7.304740|    0.824036|    0.012134|
|         738|   -4.865812|   -7.309319|    0.824034|    0.012132|
|         739|   -4.877203|   -7.313892|    0.824031|    0.012131|
|         740|   -4.889545|   -7.318469|    0.824029|    0.012129|
|         741|   -4.902021|   -7.323034|    0.824027|    0.012127|
|         742|   -4.913738|   -7.327570|    0.824024|    0.012125|
|         743|   -4.923941|   -7.332072|    0.824022|    0.012124|
|         744|   -4.932222|   -7.336538|    0.824020|    0.012122|
|         745|   -4.938633|   -7.340948|    0.824017|    0.012120|
|         746|   -4.943648|   -7.345283|    0.824015|    0.012118|
|         747|   -4.947982|   -7.349532|    0.824013|    0.012116|
|         748|   -4.952368|   -7.353708|    0.824010|    0.012115|
|         749|   -4.957375|   -7.357810|    0.824008|    0.012113|
|         750|   -4.963307|   -7.361820|    0.824005|    0.012111|
|         751|   -4.970186|   -7.365717|    0.824003|    0.012109|
|         752|   -4.977801|   -7.369487|    0.824000|    0.012107|
|         753|   -4.985779|   -7.373127|    0.823997|    0.012106|
|         754|   -4.993690|   -7.376637|    0.823994|    0.012104|
|         755|   -5.001138|   -7.380008|    0.823991|    0.012103|
|         756|   -5.007841|   -7.383238|    0.823988|    0.012101|
|         757|   -5.013664|   -7.386329|    0.823985|    0.012099|
|         758|   -5.018616|   -7.389292|    0.823982|    0.012098|
|         759|   -5.022814|   -7.392140|    0.823978|    0.012097|
|         760|   -5.026427|   -7.394896|    0.823975|    0.012095|
|         761|   -5.029623|   -7.397591|    0.823971|    0.012094|
|         762|   -5.032536|   -7.400265|    0.823967|    0.012093|
|         763|   -5.035248|   -7.402956|    0.823963|    0.012092|
|         764|   -5.037794|   -7.405713|    0.823960|    0.012091|
|         765|   -5.040172|   -7.408589|    0.823956|    0.012090|
|         766|   -5.042360|   -7.411640|    0.823952|    0.012089|
|         767|   -5.044337|   -7.414921|    0.823948|    0.012088|
|         768|   -5.046086|   -7.418483|    0.823944|    0.012087|
|         769|   -5.047604|   -7.422377|    0.823940|    0.012087|
|         770|   -5.048899|   -7.426653|    0.823936|    0.012086|
|         771|   -5.049987|   -7.431346|    0.823933|    0.012086|
|         772|   -5.050887|   -7.436484|    0.823929|    0.012085|
|         773|   -5.051619|   -7.442086|    0.823926|    0.012085|
|         774|   -5.052199|   -7.448155|    0.823923|    0.012085|
|         775|   -5.052643|   -7.454669|    0.823920|    0.012085|
|         776|   -5.052961|   -7.461586|    0.823917|    0.012085|
|         777|   -5.053165|   -7.468866|    0.823915|    0.012085|
|         778|   -5.053266|   -7.476456|    0.823913|    0.012086|
|         779|   -5.053276|   -7.484288|    0.823911|    0.012086|
|         780|   -5.053209|   -7.492265|    0.823910|    0.012087|
|         781|   -5.053079|   -7.500295|    0.823909|    0.012087|
|         782|   -5.052903|   -7.508286|    0.823908|    0.012088|
|         783|   -5.052698|   -7.516136|    0.823908|    0.012089|
|         784|   -5.052481|   -7.523745|    0.823908|    0.012090|
|         785|   -5.052270|   -7.531032|    0.823908|    0.012091|
|         786|   -5.052082|   -7.537926|    0.823909|    0.012092|
|         787|   -5.051933|   -7.544377|    0.823910|    0.012093|
|         788|   -5.051840|   -7.550354|    0.823911|    0.012094|
|         789|   -5.051817|   -7.555852|    0.823913|    0.012095|
|         790|   -5.051879|   -7.560887|    0.823914|    0.012097|
|         791|   -5.052037|   -7.565496|    0.823917|    0.012098|
|         792|   -5.052303|   -7.569729|    0.823919|    0.012100|
|         793|   -5.052687|   -7.573650|    0.823921|    0.012101|
|         794|   -5.053195|   -7.577329|    0.823924|    0.012103|
|         795|   -5.053832|   -7.580831|    0.823927|    0.012104|
|         796|   -5.054602|   -7.584216|    0.823930|    0.012106|
|         797|   -5.055504|   -7.587522|    0.823933|    0.012107|
|         798|   -5.056536|   -7.590781|    0.823937|    0.012109|
|         799|   -5.057692|   -7.594009|    0.823940|    0.012111|
|         800|   -5.058964|   -7.597203|    0.823943|    0.012113|
|         801|   -5.060342|   -7.600339|    0.823947|    0.012118|
+-----------------------------------------------------------------------+
|Fixed CL Mode                           |Value                         |
+-----------------------------------------------------------------------+
|Current CL                              |0.823947                      |
|Target CL                               |0.824                         |
|Previous AOA                            |2.78492                       |
|Changed AoA by                          |0.00028374                    |
+-----------------------------------------------------------------------+
+----------------------------------------------------------------+
|  Inner_Iter|    rms[Rho]|     rms[nu]|          CL|          CD|
+----------------------------------------------------------------+
|         802|   -3.739897|   -7.539834|    0.823950|    0.012120|
|         803|   -4.122309|   -7.572242|    0.823953|    0.012122|
|         804|   -4.362098|   -7.584233|    0.823957|    0.012123|
|         805|   -4.438656|   -7.591579|    0.823960|    0.012125|
|         806|   -4.489976|   -7.596896|    0.823963|    0.012127|
|         807|   -4.555131|   -7.600813|    0.823966|    0.012128|
|         808|   -4.633095|   -7.603539|    0.823969|    0.012130|
|         809|   -4.710258|   -7.605171|    0.823972|    0.012132|
|         810|   -4.771688|   -7.605767|    0.823974|    0.012133|
|         811|   -4.812543|   -7.605354|    0.823977|    0.012135|
|         812|   -4.836991|   -7.603971|    0.823979|    0.012136|
|         813|   -4.849967|   -7.601733|    0.823981|    0.012138|
|         814|   -4.855259|   -7.598799|    0.823983|    0.012139|
|         815|   -4.857083|   -7.595302|    0.823985|    0.012140|
|         816|   -4.859671|   -7.591364|    0.823987|    0.012142|
|         817|   -4.865664|   -7.587107|    0.823988|    0.012143|
|         818|   -4.875396|   -7.582666|    0.823989|    0.012144|
|         819|   -4.887372|   -7.578187|    0.823990|    0.012145|
|         820|   -4.899424|   -7.573824|    0.823991|    0.012146|
|         821|   -4.909957|   -7.569699|    0.823991|    0.012147|
|         822|   -4.918578|   -7.565935|    0.823991|    0.012148|
|         823|   -4.925855|   -7.562628|    0.823991|    0.012149|
|         824|   -4.932577|   -7.559851|    0.823991|    0.012149|
|         825|   -4.939199|   -7.557663|    0.823991|    0.012150|
|         826|   -4.945715|   -7.556111|    0.823990|    0.012150|
|         827|   -4.951844|   -7.555234|    0.823989|    0.012151|
|         828|   -4.957256|   -7.555069|    0.823988|    0.012151|
|         829|   -4.961706|   -7.555628|    0.823987|    0.012152|
|         830|   -4.965072|   -7.556921|    0.823985|    0.012152|
|         831|   -4.967368|   -7.558944|    0.823984|    0.012152|
|         832|   -4.968742|   -7.561688|    0.823982|    0.012152|
|         833|   -4.969467|   -7.565115|    0.823980|    0.012152|
|         834|   -4.969890|   -7.569182|    0.823978|    0.012152|
|         835|   -4.970362|   -7.573827|    0.823976|    0.012152|
|         836|   -4.971161|   -7.578983|    0.823974|    0.012152|
|         837|   -4.972448|   -7.584569|    0.823972|    0.012151|
|         838|   -4.974256|   -7.590482|    0.823970|    0.012151|
|         839|   -4.976497|   -7.596620|    0.823967|    0.012151|
|         840|   -4.978999|   -7.602875|    0.823965|    0.012150|
|         841|   -4.981554|   -7.609111|    0.823963|    0.012150|
|         842|   -4.983962|   -7.615195|    0.823961|    0.012149|
|         843|   -4.986090|   -7.620994|    0.823959|    0.012149|
|         844|   -4.987900|   -7.626381|    0.823957|    0.012148|
|         845|   -4.989460|   -7.631241|    0.823955|    0.012147|
|         846|   -4.990917|   -7.635475|    0.823954|    0.012147|
|         847|   -4.992459|   -7.639009|    0.823952|    0.012146|
|         848|   -4.994265|   -7.641793|    0.823951|    0.012145|
|         849|   -4.996469|   -7.643814|    0.823950|    0.012144|
|         850|   -4.999139|   -7.645088|    0.823949|    0.012143|
|         851|   -5.002277|   -7.645667|    0.823949|    0.012143|
|         852|   -5.005835|   -7.645636|    0.823948|    0.012142|
|         853|   -5.009732|   -7.645104|    0.823948|    0.012141|
|         854|   -5.013879|   -7.644201|    0.823948|    0.012140|
|         855|   -5.018199|   -7.643063|    0.823949|    0.012139|
|         856|   -5.022640|   -7.641836|    0.823950|    0.012138|
|         857|   -5.027175|   -7.640667|    0.823951|    0.012137|
|         858|   -5.031805|   -7.639692|    0.823952|    0.012136|
|         859|   -5.036545|   -7.639038|    0.823953|    0.012136|
|         860|   -5.041414|   -7.638818|    0.823955|    0.012135|
|         861|   -5.046430|   -7.639131|    0.823957|    0.012134|
|         862|   -5.051598|   -7.640057|    0.823960|    0.012133|
|         863|   -5.056910|   -7.641658|    0.823962|    0.012132|
|         864|   -5.062345|   -7.643976|    0.823965|    0.012132|
|         865|   -5.067870|   -7.647033|    0.823968|    0.012131|
|         866|   -5.073443|   -7.650829|    0.823971|    0.012130|
|         867|   -5.079017|   -7.655341|    0.823974|    0.012129|
|         868|   -5.084546|   -7.660521|    0.823978|    0.012129|
|         869|   -5.089978|   -7.666298|    0.823981|    0.012128|
|         870|   -5.095264|   -7.672573|    0.823985|    0.012127|
|         871|   -5.100355|   -7.679222|    0.823988|    0.012127|
|         872|   -5.105201|   -7.686095|    0.823992|    0.012126|
|         873|   -5.109753|   -7.693020|    0.823995|    0.012126|
|         874|   -5.113964|   -7.699806|    0.823999|    0.012125|
|         875|   -5.117789|   -7.706250|    0.824003|    0.012125|
|         876|   -5.121186|   -7.712147|    0.824006|    0.012124|
|         877|   -5.124121|   -7.717305|    0.824010|    0.012124|
|         878|   -5.126565|   -7.721552|    0.824013|    0.012123|
|         879|   -5.128497|   -7.724758|    0.824016|    0.012123|
|         880|   -5.129908|   -7.726839|    0.824019|    0.012122|
|         881|   -5.130796|   -7.727769|    0.824022|    0.012122|
|         882|   -5.131172|   -7.727579|    0.824025|    0.012122|
|         883|   -5.131053|   -7.726358|    0.824027|    0.012121|
|         884|   -5.130467|   -7.724237|    0.824030|    0.012121|
|         885|   -5.129450|   -7.721381|    0.824032|    0.012121|
|         886|   -5.128043|   -7.717970|    0.824034|    0.012121|
|         887|   -5.126295|   -7.714196|    0.824036|    0.012121|
|         888|   -5.124254|   -7.710241|    0.824038|    0.012120|
|         889|   -5.121976|   -7.706276|    0.824039|    0.012120|
|         890|   -5.119513|   -7.702450|    0.824041|    0.012120|
|         891|   -5.116919|   -7.698884|    0.824042|    0.012120|
|         892|   -5.114247|   -7.695672|    0.824043|    0.012120|
|         893|   -5.111546|   -7.692884|    0.824044|    0.012120|
|         894|   -5.108865|   -7.690561|    0.824045|    0.012120|
|         895|   -5.106246|   -7.688721|    0.824046|    0.012120|
|         896|   -5.103731|   -7.687361|    0.824047|    0.012121|
|         897|   -5.101355|   -7.686456|    0.824048|    0.012121|
|         898|   -5.099151|   -7.685969|    0.824048|    0.012121|
|         899|   -5.097149|   -7.685845|    0.824049|    0.012121|
|         900|   -5.095373|   -7.686021|    0.824049|    0.012121|
|         901|   -5.093846|   -7.686424|    0.824049|    0.012118|
+-----------------------------------------------------------------------+
|Fixed CL Mode                           |Value                         |
+-----------------------------------------------------------------------+
|Current CL                              |0.824049                      |
|Target CL                               |0.824                         |
|Previous AOA                            |2.7852                        |
[...]
|        5298|   -6.045806|   -7.929155|    0.824239|    0.012131|
|        5299|   -6.052530|   -7.933673|    0.824239|    0.012131|
|        5300|   -6.058899|   -7.938210|    0.824240|    0.012131|
|        5301|   -6.064876|   -7.942782|    0.824240|    0.012131|
|        5302|   -6.070431|   -7.947402|    0.824240|    0.012130|
|        5303|   -6.075545|   -7.952081|    0.824240|    0.012130|
|        5304|   -6.080209|   -7.956829|    0.824240|    0.012130|
|        5305|   -6.084428|   -7.961652|    0.824240|    0.012130|
|        5306|   -6.088215|   -7.966556|    0.824240|    0.012130|
|        5307|   -6.091592|   -7.971544|    0.824240|    0.012130|
|        5308|   -6.094593|   -7.976621|    0.824240|    0.012130|
|        5309|   -6.097257|   -7.981788|    0.824240|    0.012130|
|        5310|   -6.099630|   -7.987050|    0.824240|    0.012130|
|        5311|   -6.101762|   -7.992408|    0.824241|    0.012130|
|        5312|   -6.103706|   -7.997868|    0.824241|    0.012130|
|        5313|   -6.105513|   -8.003434|    0.824241|    0.012130|
|        5314|   -6.107238|   -8.009111|    0.824241|    0.012130|
|        5315|   -6.108929|   -8.014905|    0.824241|    0.012130|
|        5316|   -6.110636|   -8.020823|    0.824241|    0.012130|
|        5317|   -6.112401|   -8.026872|    0.824241|    0.012130|
|        5318|   -6.114262|   -8.033060|    0.824241|    0.012130|
|        5319|   -6.116253|   -8.039394|    0.824241|    0.012130|
|        5320|   -6.118400|   -8.045882|    0.824242|    0.012131|
|        5321|   -6.120726|   -8.052528|    0.824242|    0.012131|
|        5322|   -6.123243|   -8.059341|    0.824242|    0.012131|
|        5323|   -6.125960|   -8.066322|    0.824242|    0.012131|
|        5324|   -6.128878|   -8.073476|    0.824242|    0.012131|
|        5325|   -6.131993|   -8.080803|    0.824242|    0.012131|
|        5326|   -6.135292|   -8.088304|    0.824242|    0.012131|
|        5327|   -6.138759|   -8.095976|    0.824243|    0.012131|
|        5328|   -6.142369|   -8.103813|    0.824243|    0.012131|
|        5329|   -6.146094|   -8.111806|    0.824243|    0.012131|
|        5330|   -6.149902|   -8.119947|    0.824243|    0.012131|
|        5331|   -6.153757|   -8.128226|    0.824243|    0.012131|
|        5332|   -6.157618|   -8.136629|    0.824243|    0.012131|
|        5333|   -6.161445|   -8.145142|    0.824243|    0.012132|
|        5334|   -6.165197|   -8.153751|    0.824243|    0.012132|
|        5335|   -6.168833|   -8.162439|    0.824243|    0.012132|
|        5336|   -6.172317|   -8.171189|    0.824244|    0.012132|
|        5337|   -6.175614|   -8.179985|    0.824244|    0.012132|
|        5338|   -6.178696|   -8.188808|    0.824244|    0.012132|
|        5339|   -6.181540|   -8.197643|    0.824244|    0.012132|
|        5340|   -6.184131|   -8.206474|    0.824244|    0.012132|
|        5341|   -6.186463|   -8.215283|    0.824244|    0.012132|
|        5342|   -6.188537|   -8.224057|    0.824244|    0.012132|
|        5343|   -6.190362|   -8.232782|    0.824244|    0.012132|
|        5344|   -6.191956|   -8.241449|    0.824244|    0.012132|
|        5345|   -6.193345|   -8.250049|    0.824244|    0.012132|
|        5346|   -6.194558|   -8.258575|    0.824244|    0.012133|
|        5347|   -6.195634|   -8.267020|    0.824244|    0.012133|
|        5348|   -6.196611|   -8.275379|    0.824245|    0.012133|
|        5349|   -6.197534|   -8.283648|    0.824245|    0.012133|
|        5350|   -6.198446|   -8.291828|    0.824245|    0.012133|
|        5351|   -6.199393|   -8.299919|    0.824245|    0.012133|
|        5352|   -6.200417|   -8.307920|    0.824245|    0.012133|
|        5353|   -6.201562|   -8.315834|    0.824245|    0.012133|
|        5354|   -6.202866|   -8.323663|    0.824245|    0.012133|
|        5355|   -6.204365|   -8.331409|    0.824245|    0.012133|
|        5356|   -6.206091|   -8.339081|    0.824245|    0.012133|
|        5357|   -6.208072|   -8.346682|    0.824245|    0.012133|
|        5358|   -6.210333|   -8.354214|    0.824245|    0.012133|
|        5359|   -6.212890|   -8.361683|    0.824245|    0.012133|
|        5360|   -6.215759|   -8.369088|    0.824245|    0.012133|
|        5361|   -6.218948|   -8.376430|    0.824244|    0.012133|
|        5362|   -6.222460|   -8.383708|    0.824244|    0.012133|
|        5363|   -6.226296|   -8.390923|    0.824244|    0.012133|
|        5364|   -6.230448|   -8.398076|    0.824244|    0.012133|
|        5365|   -6.234905|   -8.405165|    0.824244|    0.012133|
|        5366|   -6.239652|   -8.412191|    0.824244|    0.012133|
|        5367|   -6.244666|   -8.419151|    0.824244|    0.012133|
|        5368|   -6.249924|   -8.426043|    0.824244|    0.012133|
|        5369|   -6.255393|   -8.432865|    0.824244|    0.012133|
|        5370|   -6.261038|   -8.439613|    0.824244|    0.012133|
|        5371|   -6.266822|   -8.446285|    0.824244|    0.012133|
|        5372|   -6.272701|   -8.452877|    0.824244|    0.012133|
|        5373|   -6.278630|   -8.459385|    0.824244|    0.012133|
|        5374|   -6.284560|   -8.465806|    0.824243|    0.012132|
|        5375|   -6.290443|   -8.472139|    0.824243|    0.012132|
|        5376|   -6.296228|   -8.478383|    0.824243|    0.012132|
|        5377|   -6.301866|   -8.484538|    0.824243|    0.012132|
|        5378|   -6.307310|   -8.490606|    0.824243|    0.012132|
|        5379|   -6.312515|   -8.496590|    0.824243|    0.012132|
|        5380|   -6.317441|   -8.502494|    0.824243|    0.012132|
|        5381|   -6.322052|   -8.508324|    0.824243|    0.012132|
|        5382|   -6.326320|   -8.514087|    0.824243|    0.012132|
|        5383|   -6.330221|   -8.519788|    0.824243|    0.012132|
|        5384|   -6.333742|   -8.525435|    0.824243|    0.012132|
|        5385|   -6.336875|   -8.531035|    0.824243|    0.012132|
|        5386|   -6.339621|   -8.536599|    0.824243|    0.012132|
|        5387|   -6.341986|   -8.542134|    0.824243|    0.012131|
|        5388|   -6.343982|   -8.547640|    0.824243|    0.012131|
|        5389|   -6.345627|   -8.553116|    0.824243|    0.012131|
|        5390|   -6.346943|   -8.558556|    0.824243|    0.012131|
|        5391|   -6.347956|   -8.563953|    0.824243|    0.012131|
|        5392|   -6.348693|   -8.569298|    0.824243|    0.012131|
|        5393|   -6.349182|   -8.574580|    0.824243|    0.012131|
|        5394|   -6.349450|   -8.579786|    0.824243|    0.012131|
|        5395|   -6.349526|   -8.584899|    0.824243|    0.012131|
|        5396|   -6.349434|   -8.589896|    0.824243|    0.012130|
|        5397|   -6.349198|   -8.594756|    0.824243|    0.012130|
|        5398|   -6.348840|   -8.599451|    0.824243|    0.012130|
|        5399|   -6.348376|   -8.603958|    0.824243|    0.012130|
|        5400|   -6.347824|   -8.608248|    0.824243|    0.012130|
|        5401|   -6.347196|   -8.612295|    0.824243|    0.012130|
|        5402|   -6.346504|   -8.616077|    0.824243|    0.012130|
|        5403|   -6.345757|   -8.619571|    0.824243|    0.012130|
|        5404|   -6.344961|   -8.622760|    0.824244|    0.012130|
|        5405|   -6.344123|   -8.625634|    0.824244|    0.012130|
|        5406|   -6.343246|   -8.628185|    0.824244|    0.012129|
|        5407|   -6.342335|   -8.630415|    0.824244|    0.012129|
|        5408|   -6.341392|   -8.632331|    0.824244|    0.012129|
|        5409|   -6.340420|   -8.633944|    0.824244|    0.012129|
|        5410|   -6.339422|   -8.635272|    0.824244|    0.012129|
|        5411|   -6.338399|   -8.636338|    0.824244|    0.012129|
|        5412|   -6.337355|   -8.637176|    0.824244|    0.012129|
|        5413|   -6.336291|   -8.637816|    0.824245|    0.012129|
|        5414|   -6.335213|   -8.638292|    0.824245|    0.012129|
|        5415|   -6.334124|   -8.638637|    0.824245|    0.012129|
|        5416|   -6.333029|   -8.638880|    0.824245|    0.012129|
|        5417|   -6.331934|   -8.639052|    0.824245|    0.012129|
|        5418|   -6.330844|   -8.639180|    0.824245|    0.012129|
|        5419|   -6.329766|   -8.639288|    0.824245|    0.012129|
|        5420|   -6.328708|   -8.639397|    0.824245|    0.012128|
|        5421|   -6.327679|   -8.639523|    0.824245|    0.012128|
|        5422|   -6.326687|   -8.639679|    0.824245|    0.012128|
|        5423|   -6.325742|   -8.639873|    0.824245|    0.012128|
|        5424|   -6.324856|   -8.640110|    0.824245|    0.012128|
|        5425|   -6.324039|   -8.640391|    0.824245|    0.012128|
|        5426|   -6.323303|   -8.640716|    0.824245|    0.012128|
|        5427|   -6.322662|   -8.641080|    0.824245|    0.012128|
|        5428|   -6.322128|   -8.641479|    0.824245|    0.012128|
|        5429|   -6.321717|   -8.641906|    0.824245|    0.012128|
|        5430|   -6.321441|   -8.642356|    0.824245|    0.012128|
|        5431|   -6.321317|   -8.642823|    0.824245|    0.012128|
|        5432|   -6.321358|   -8.643303|    0.824245|    0.012128|
|        5433|   -6.321579|   -8.643781|    0.824245|    0.012128|
|        5434|   -6.321995|   -8.644259|    0.824245|    0.012128|
|        5435|   -6.322621|   -8.644740|    0.824245|    0.012128|
|        5436|   -6.323468|   -8.645230|    0.824245|    0.012128|
|        5437|   -6.324551|   -8.645735|    0.824245|    0.012128|
|        5438|   -6.325880|   -8.646258|    0.824245|    0.012128|
|        5439|   -6.327466|   -8.646807|    0.824245|    0.012128|
|        5440|   -6.329318|   -8.647389|    0.824245|    0.012128|
|        5441|   -6.331443|   -8.648014|    0.824245|    0.012129|
|        5442|   -6.333846|   -8.648689|    0.824245|    0.012129|
|        5443|   -6.336528|   -8.649423|    0.824245|    0.012129|
|        5444|   -6.339491|   -8.650225|    0.824245|    0.012129|
|        5445|   -6.342732|   -8.651102|    0.824245|    0.012129|
|        5446|   -6.346244|   -8.652059|    0.824245|    0.012129|
|        5447|   -6.350019|   -8.653102|    0.824245|    0.012129|
|        5448|   -6.354044|   -8.654234|    0.824245|    0.012129|
|        5449|   -6.358304|   -8.655456|    0.824244|    0.012129|
|        5450|   -6.362779|   -8.656771|    0.824244|    0.012129|
|        5451|   -6.367445|   -8.658176|    0.824244|    0.012129|
|        5452|   -6.372274|   -8.659672|    0.824244|    0.012129|
|        5453|   -6.377237|   -8.661253|    0.824244|    0.012129|
|        5454|   -6.382297|   -8.662917|    0.824244|    0.012129|
|        5455|   -6.387417|   -8.664657|    0.824244|    0.012129|
|        5456|   -6.392556|   -8.666467|    0.824244|    0.012129|
|        5457|   -6.397668|   -8.668340|    0.824243|    0.012130|
|        5458|   -6.402708|   -8.670267|    0.824243|    0.012130|
|        5459|   -6.407629|   -8.672239|    0.824243|    0.012130|
|        5460|   -6.412382|   -8.674246|    0.824243|    0.012130|
|        5461|   -6.416921|   -8.676280|    0.824243|    0.012130|
|        5462|   -6.421199|   -8.678328|    0.824242|    0.012130|
|        5463|   -6.425174|   -8.680381|    0.824242|    0.012130|
|        5464|   -6.428808|   -8.682428|    0.824242|    0.012130|
|        5465|   -6.432067|   -8.684459|    0.824242|    0.012130|
|        5466|   -6.434925|   -8.686465|    0.824242|    0.012130|
|        5467|   -6.437360|   -8.688434|    0.824241|    0.012130|
|        5468|   -6.439362|   -8.690359|    0.824241|    0.012130|
|        5469|   -6.440924|   -8.692231|    0.824241|    0.012130|
|        5470|   -6.442053|   -8.694040|    0.824241|    0.012130|
|        5471|   -6.442759|   -8.695781|    0.824241|    0.012130|
|        5472|   -6.443060|   -8.697444|    0.824240|    0.012130|
|        5473|   -6.442984|   -8.699024|    0.824240|    0.012131|
|        5474|   -6.442561|   -8.700515|    0.824240|    0.012131|
|        5475|   -6.441826|   -8.701911|    0.824240|    0.012131|
|        5476|   -6.440820|   -8.703207|    0.824239|    0.012131|
|        5477|   -6.439583|   -8.704398|    0.824239|    0.012131|
|        5478|   -6.438159|   -8.705481|    0.824239|    0.012131|
|        5479|   -6.436589|   -8.706452|    0.824239|    0.012131|
|        5480|   -6.434918|   -8.707308|    0.824238|    0.012131|
|        5481|   -6.433186|   -8.708049|    0.824238|    0.012131|
|        5482|   -6.431432|   -8.708674|    0.824238|    0.012131|
|        5483|   -6.429694|   -8.709181|    0.824238|    0.012131|
|        5484|   -6.428005|   -8.709573|    0.824237|    0.012131|
|        5485|   -6.426397|   -8.709852|    0.824237|    0.012131|
|        5486|   -6.424899|   -8.710020|    0.824237|    0.012131|
|        5487|   -6.423536|   -8.710084|    0.824237|    0.012131|
|        5488|   -6.422330|   -8.710047|    0.824236|    0.012131|
|        5489|   -6.421302|   -8.709918|    0.824236|    0.012131|
|        5490|   -6.420467|   -8.709704|    0.824236|    0.012131|
|        5491|   -6.419839|   -8.709415|    0.824236|    0.012131|
|        5492|   -6.419431|   -8.709061|    0.824236|    0.012131|
|        5493|   -6.419251|   -8.708653|    0.824235|    0.012131|
|        5494|   -6.419306|   -8.708202|    0.824235|    0.012131|
|        5495|   -6.419602|   -8.707721|    0.824235|    0.012131|
|        5496|   -6.420141|   -8.707223|    0.824235|    0.012131|
|        5497|   -6.420924|   -8.706721|    0.824235|    0.012131|
|        5498|   -6.421953|   -8.706227|    0.824235|    0.012131|
|        5499|   -6.423225|   -8.705755|    0.824235|    0.012116|
+-----------------------------------------------------------------------+
|Fixed CL Mode (Finite Difference)       |Value                         |
+-----------------------------------------------------------------------+
|Delta CL / Delta AoA                    |0.234145                      |
|Delta CD / Delta CL                     |0.0194885                     |
|Delta CMz / Delta CL                    |0.00353834                    |
+-----------------------------------------------------------------------+
Writing Flow Meta-Data file: flow.meta

----------------------------- Solver Exit -------------------------------

Maximum number of iterations reached (ITER = 5500) before convergence.
+-----------------------------------------------------------------------+
|      Convergence Field     |     Value    |   Criterion  |  Converged |
+-----------------------------------------------------------------------+
|                    rms[Rho]|      -6.42322|         < -12|          No|
+-----------------------------------------------------------------------+
-------------------------------------------------------------------------

--------------------------- Finalizing Solver ---------------------------
Deleted CNumerics container.
Deleted CIntegration container.
Deleted CSolver container.
Deleted CIteration container.
Deleted CInterface container.
Deleted CGeometry container.
Deleted CFreeFormDefBox class.
Deleted CSurfaceMovement class.
Deleted CVolumetricMovement class.
Deleted CConfig container.
Deleted nInst container.
Deleted COutput class.
-------------------------------------------------------------------------

------------------------- Exit Success (SU2_CFD) ------------------------


-------------------------------------------------------------------------
|    ___ _   _ ___                                                      |
|   / __| | | |_  )   Release 8.0.0 "Harrier"                           |
|   \__ \ |_| |/ /                                                      |
|   |___/\___//___|   Suite (Solution Exporting Code)                   |
|                                                                       |
-------------------------------------------------------------------------
| SU2 Project Website: https://su2code.github.io                        |
|                                                                       |
| The SU2 Project is maintained by the SU2 Foundation                   |
| (http://su2foundation.org)                                            |
-------------------------------------------------------------------------
| Copyright 2012-2023, SU2 Contributors                                 |
|                                                                       |
| SU2 is free software; you can redistribute it and/or                  |
| modify it under the terms of the GNU Lesser General Public            |
| License as published by the Free Software Foundation; either          |
| version 2.1 of the License, or (at your option) any later version.    |
|                                                                       |
| SU2 is distributed in the hope that it will be useful,                |
| but WITHOUT ANY WARRANTY; without even the implied warranty of        |
| MERCHANTABILITY or FITNESS FOR A PARTICULAR PURPOSE. See the GNU      |
| Lesser General Public License for more details.                       |
|                                                                       |
| You should have received a copy of the GNU Lesser General Public      |
| License along with SU2. If not, see <http://www.gnu.org/licenses/>.   |
-------------------------------------------------------------------------

----------------- Physical Case Definition ( Zone 0 ) -------------------
Input mesh file name: mesh_RAE2822_turb_deform.su2

-------------------- Output Information ( Zone 0 ) ----------------------
The tabular file format is CSV (.csv).
Flow variables file name: flow.

------------- Config File Boundary Information ( Zone 0 ) ---------------
+-----------------------------------------------------------------------+
|                        Marker Type|                        Marker Name|
+-----------------------------------------------------------------------+
|                          Far-field|                           FARFIELD|
+-----------------------------------------------------------------------+
|                     Heat flux wall|                            AIRFOIL|
+-----------------------------------------------------------------------+
Two dimensional problem.
13937 grid points before partitioning.
22842 volume elements before partitioning.
2 surface markers.
192 boundary elements in index 0 (Marker = AIRFOIL).
40 boundary elements in index 1 (Marker = FARFIELD).
Executing the partitioning functions.
Building the graph adjacency structure.
Calling ParMETIS... graph partitioning complete (831 edge cuts).
Distributing ParMETIS coloring.
Rebalancing vertices.
Rebalancing volume element connectivity.
Rebalancing markers and surface elements.
14875 vertices including ghost points. 
23674 interior elements including halo cells. 
18780 triangles.
4894 quadrilaterals.
Establishing MPI communication patterns.
Identify vertices.
Storing a mapping from global to local point index.

------------------------- Solution Postprocessing -----------------------
Reading and storing the solution from restart_flow.
Volume output fields: COORDINATES, SOLUTION
  Info: Ignoring the following screen output fields:
  RMS_DENSITY, RMS_NU_TILDE, LIFT, DRAG
Screen output fields: INNER_ITER
  Info: Ignoring the following history output groups:
  RMS_RES, AERO_COEFF
History output group(s): ITER
Warning: No (valid) fields chosen for convergence monitoring. Convergence monitoring inactive.
Warning: No (valid) fields chosen for time convergence monitoring. Time convergence monitoring inactive.
|Paraview                           |flow.vtu                           |
|Paraview surface                   |surface_flow.vtu                   |
|CSV file                           |surface_flow.csv                   |

------------------------- Finalize Solver -------------------------
Deleted CGeometry container.
Deleted CSolver class.
Deleted CConfig container.
Deleted COutput class.

Completed in 0.015803 seconds on 6 cores.

------------------------- Exit Success (SU2_SOL) ------------------------

