
-------------------------------------------------------------------------
|    ___ _   _ ___                                                      |
|   / __| | | |_  )   Release 8.0.0 "Harrier"                           |
|   \__ \ |_| |/ /                                                      |
|   |___/\___//___|   Suite (Computational Fluid Dynamics Code)         |
|                                                                       |
-------------------------------------------------------------------------
| SU2 Project Website: https://su2code.github.io                        |
|                                                                       |
| The SU2 Project is maintained by the SU2 Foundation                   |
| (http://su2foundation.org)                                            |
-------------------------------------------------------------------------
| Copyright 2012-2023, SU2 Contributors                                 |
|                                                                       |
| SU2 is free software; you can redistribute it and/or                  |
| modify it under the terms of the GNU Lesser General Public            |
| License as published by the Free Software Foundation; either          |
| version 2.1 of the License, or (at your option) any later version.    |
|                                                                       |
| SU2 is distributed in the hope that it will be useful,                |
| but WITHOUT ANY WARRANTY; without even the implied warranty of        |
| MERCHANTABILITY or FITNESS FOR A PARTICULAR PURPOSE. See the GNU      |
| Lesser General Public License for more details.                       |
|                                                                       |
| You should have received a copy of the GNU Lesser General Public      |
| License along with SU2. If not, see <http://www.gnu.org/licenses/>.   |
-------------------------------------------------------------------------

Parsing config file for zone 0

----------------- Physical Case Definition ( Zone 0 ) -------------------
Compressible RANS equations.
Turbulence model: Spalart-Allmaras-noft2
Hybrid RANS/LES: No Hybrid RANS/LES
Mach number: 0.734.
Angle of attack (AoA): 2.31 deg, and angle of sideslip (AoS): 0 deg.
Reynolds number: 6.5e+06. Reference length 1.
Fixed CL mode, target value: 0.824.
Reading and writing binary SU2 native restart files.
Read flow solution from: solution_flow.dat.
Dimensional simulation.
The reference area is 1 m^2.
The semi-span will be computed using the max y(3D) value.
The reference length is 1 m.
Reference origin for moment evaluation is (0.25, 0, 0).
Surface(s) where the force coefficients are evaluated: AIRFOIL.

Surface(s) plotted in the output file: AIRFOIL.
Surface(s) affected by the design variables: AIRFOIL.
Input mesh file name: mesh_RAE2822_turb_deform.su2

--------------- Space Numerical Integration ( Zone 0 ) ------------------
Jameson-Schmidt-Turkel scheme (2nd order in space) for the flow inviscid terms.
JST viscous coefficients (2nd & 4th): 0.5, 0.02.
The method includes a grid stretching correction (p = 0.3).
Scalar upwind solver for the turbulence model.
First order integration in space.
Average of gradients with correction (viscous flow terms).
Average of gradients with correction (viscous turbulence terms).
Gradient for viscous and source terms: inverse-distance weighted Least-Squares.

--------------- Time Numerical Integration  ( Zone 0 ) ------------------
Local time stepping (steady state simulation).
Euler implicit method for the flow equations.
FGMRES is used for solving the linear system.
Using a ILU(0) preconditioning.
Convergence criteria of the linear solver: 1e-06.
Max number of linear iterations: 10.
No CFL adaptation.
Courant-Friedrichs-Lewy number:       10
Euler implicit time integration for the turbulence model.

------------------ Convergence Criteria  ( Zone 0 ) ---------------------
Maximum number of solver subiterations: 5500.
Begin convergence monitoring at iteration 10.
Residual minimum value: 1e-12.
Cauchy series min. value: 1e-06.
Number of Cauchy elements: 100.
Begin windowed time average at iteration 0.

-------------------- Output Information ( Zone 0 ) ----------------------
File writing frequency: 
+------------------------------------+
|                     File| Frequency|
+------------------------------------+
|                  RESTART|     10000|
|                 PARAVIEW|     10000|
|         SURFACE_PARAVIEW|     10000|
|              SURFACE_CSV|     10000|
+------------------------------------+
Writing the convergence history file every 1 inner iterations.
Writing the screen convergence history every 1 inner iterations.
The tabular file format is CSV (.csv).
Convergence history file name: history_direct.
Forces breakdown file name: forces_breakdown.dat.
Surface file name: surface_flow.
Volume file name: flow.
Restart file name: restart_flow.dat.

------------- Config File Boundary Information ( Zone 0 ) ---------------
+-----------------------------------------------------------------------+
|                        Marker Type|                        Marker Name|
+-----------------------------------------------------------------------+
|                          Far-field|                           FARFIELD|
+-----------------------------------------------------------------------+
|                     Heat flux wall|                            AIRFOIL|
+-----------------------------------------------------------------------+

-------------------- Output Preprocessing ( Zone 0 ) --------------------

WARNING: SURFACE_PRESSURE_DROP can only be computed for at least 2 surfaces (outlet, inlet, ...)

Screen output fields: INNER_ITER, RMS_DENSITY, RMS_NU_TILDE, LIFT, DRAG
History output group(s): ITER, RMS_RES, AERO_COEFF
Convergence field(s): RMS_DENSITY
Warning: No (valid) fields chosen for time convergence monitoring. Time convergence monitoring inactive.
Volume output fields: COORDINATES, SOLUTION, PRIMITIVE

------------------- Geometry Preprocessing ( Zone 0 ) -------------------
Two dimensional problem.
13937 grid points before partitioning.
22842 volume elements before partitioning.
2 surface markers.
192 boundary elements in index 0 (Marker = AIRFOIL).
40 boundary elements in index 1 (Marker = FARFIELD).
Executing the partitioning functions.
Building the graph adjacency structure.
Calling ParMETIS... graph partitioning complete (831 edge cuts).
Distributing ParMETIS coloring.
Rebalancing vertices.
Rebalancing volume element connectivity.
Rebalancing markers and surface elements.
14875 vertices including ghost points. 
23674 interior elements including halo cells. 
18780 triangles.
4894 quadrilaterals.
Establishing MPI communication patterns.
Setting point connectivity.
Renumbering points (Reverse Cuthill McKee Ordering).
Recomputing point connectivity.
Setting element connectivity.
Checking the numerical grid orientation.
All volume elements are correctly orientend.
All surface elements are correctly orientend.
Identifying edges and vertices.
Setting the control volume structure.
Area of the computational grid: 32209.9.
Searching for the closest normal neighbors to the surfaces.
Storing a mapping from global to local point index.
Compute the surface curvature.
Max K: 207.853. Mean K: 8.37283. Standard deviation K: 27.2789.
Checking for periodicity.
Computing mesh quality statistics for the dual control volumes.
+--------------------------------------------------------------+
|           Mesh Quality Metric|        Minimum|        Maximum|
+--------------------------------------------------------------+
|    Orthogonality Angle (deg.)|        74.4513|        89.9998|
|     CV Face Area Aspect Ratio|        1.00104|        3359.05|
|           CV Sub-Volume Ratio|        1.00066|        1219.86|
+--------------------------------------------------------------+
Finding max control volume width.
Communicating number of neighbors.
Wetted area = 2.02133 m.
Area projection in the x-plane = 0.128035 m, y-plane = 0.995873 m.
Max. coordinate in the x-direction = 1 m, y-direction = 0.0615219 m.
Min. coordinate in the x-direction = 0 m, y-direction = -0.0626399 m.
Computing wall distances.

-------------------- Solver Preprocessing ( Zone 0 ) --------------------
WARNING: AoA in the solution file (2.76594 deg.) +
         AoA offset in mesh file (0 deg.) = 2.76594 deg.
WARNING: SU2 will use the dCD/dCL provided in the direct solution file: 0.020136.
WARNING: SU2 will use the dCMz/dCL provided in the direct solution file: 0.0117764.
Viscous flow: Computing pressure using the ideal gas law
based on the free-stream temperature and a density computed
from the Reynolds number.
Force coefficients computed using free-stream values.

-- Models:
+------------------------------------------------------------------------------+
|          Viscosity Model|        Conductivity Model|              Fluid Model|
+------------------------------------------------------------------------------+
|               SUTHERLAND|          CONSTANT_PRANDTL|             STANDARD_AIR|
+------------------------------------------------------------------------------+
-- Fluid properties:
+------------------------------------------------------------------------------+
|                  Name|    Dim. value|    Ref. value|      Unit|Non-dim. value|
+------------------------------------------------------------------------------+
|        Ref. Viscosity|     1.716e-05|             1|   N.s/m^2|     1.716e-05|
|      Sutherland Temp.|        273.15|             1|         K|        273.15|
|     Sutherland Const.|         110.4|             1|         K|         110.4|
+------------------------------------------------------------------------------+
|        Prandtl (Lam.)|             -|             -|         -|          0.71|
|       Prandtl (Turb.)|             -|             -|         -|           0.9|
+------------------------------------------------------------------------------+
|          Gas Constant|       287.058|             1|  N.m/kg.K|       287.058|
|      Spec. Heat Ratio|             -|             -|         -|           1.4|
+------------------------------------------------------------------------------+
-- Initial and free-stream conditions:
+------------------------------------------------------------------------------+
|                  Name|    Dim. value|    Ref. value|      Unit|Non-dim. value|
+------------------------------------------------------------------------------+
|       Static Pressure|         38515|             1|        Pa|         38515|
|               Density|      0.465631|             1|    kg/m^3|      0.465631|
|           Temperature|        288.15|             1|         K|        288.15|
|          Total Energy|        237984|             1|   m^2/s^2|        237984|
|            Velocity-X|       249.487|             1|       m/s|       249.487|
|            Velocity-Y|       12.0533|             1|       m/s|       12.0533|
|    Velocity Magnitude|       249.778|             1|       m/s|       249.778|
+------------------------------------------------------------------------------+
|             Viscosity|    1.7893e-05|             1|   N.s/m^2|    1.7893e-05|
|          Conductivity|             -|             1|   W/m^2.K|             -|
|     Turb. Kin. Energy|       233.959|             1|   m^2/s^2|       233.959|
|     Spec. Dissipation|        608834|             1|       1/s|        608834|
+------------------------------------------------------------------------------+
|           Mach Number|             -|             -|         -|         0.734|
|       Reynolds Number|             -|             -|         -|       6.5e+06|
+------------------------------------------------------------------------------+
Initialize Jacobian structure (Navier-Stokes). MG level: 0.
Initialize Jacobian structure (SA model).

------------------- Numerics Preprocessing ( Zone 0 ) -------------------

----------------- Integration Preprocessing ( Zone 0 ) ------------------

------------------- Iteration Preprocessing ( Zone 0 ) ------------------
Euler/Navier-Stokes/RANS fluid iteration.

------------------------------ Begin Solver -----------------------------

Simulation Run using the Single-zone Driver
WARNING: SU2 was not compiled for an AVX-capable architecture. Performance could be better,
         see https://su2code.github.io/docs_v7/Build-SU2-Linux-MacOS/#compiler-optimizations
+----------------------------------------------------------------+
|  Inner_Iter|    rms[Rho]|     rms[nu]|          CL|          CD|
+----------------------------------------------------------------+
|           0|   -5.053975|   -6.462200|    0.824072|    0.011950|
|           1|   -5.108428|   -6.559248|    0.824108|    0.011958|
|           2|   -5.165790|   -6.684167|    0.824117|    0.011964|
|           3|   -5.211234|   -6.832643|    0.824110|    0.011967|
|           4|   -5.244880|   -6.982365|    0.824097|    0.011968|
|           5|   -5.266579|   -7.084091|    0.824086|    0.011968|
|           6|   -5.277081|   -7.111292|    0.824079|    0.011967|
|           7|   -5.279072|   -7.096957|    0.824077|    0.011968|
|           8|   -5.275497|   -7.069717|    0.824080|    0.011969|
|           9|   -5.268373|   -7.036473|    0.824086|    0.011972|
|          10|   -5.258894|   -7.000532|    0.824094|    0.011975|
|          11|   -5.247956|   -6.968010|    0.824104|    0.011980|
|          12|   -5.236420|   -6.945270|    0.824114|    0.011985|
|          13|   -5.225050|   -6.936469|    0.824124|    0.011992|
|          14|   -5.214391|   -6.943193|    0.824134|    0.011998|
|          15|   -5.204754|   -6.964556|    0.824141|    0.012005|
|          16|   -5.196303|   -6.996564|    0.824147|    0.012013|
|          17|   -5.189142|   -7.030663|    0.824150|    0.012020|
|          18|   -5.183365|   -7.053815|    0.824150|    0.012026|
|          19|   -5.179026|   -7.054960|    0.824148|    0.012033|
|          20|   -5.176093|   -7.034782|    0.824143|    0.012038|
|          21|   -5.174422|   -7.004412|    0.824135|    0.012043|
|          22|   -5.173772|   -6.975274|    0.824125|    0.012048|
|          23|   -5.173858|   -6.953942|    0.824114|    0.012051|
|          24|   -5.174417|   -6.942778|    0.824102|    0.012054|
|          25|   -5.175258|   -6.941629|    0.824089|    0.012057|
|          26|   -5.176277|   -6.948862|    0.824076|    0.012058|
|          27|   -5.177439|   -6.961816|    0.824063|    0.012059|
|          28|   -5.178733|   -6.977098|    0.824050|    0.012060|
|          29|   -5.180124|   -6.991096|    0.824038|    0.012060|
|          30|   -5.181520|   -7.000885|    0.824027|    0.012060|
|          31|   -5.182761|   -7.005168|    0.824016|    0.012059|
|          32|   -5.183630|   -7.004607|    0.824006|    0.012058|
|          33|   -5.183892|   -7.001249|    0.823997|    0.012056|
|          34|   -5.183340|   -6.997532|    0.823988|    0.012055|
|          35|   -5.181834|   -6.995531|    0.823979|    0.012053|
|          36|   -5.179334|   -6.996650|    0.823971|    0.012051|
|          37|   -5.175897|   -7.001638|    0.823963|    0.012049|
|          38|   -5.171664|   -7.010708|    0.823954|    0.012046|
|          39|   -5.166824|   -7.023652|    0.823946|    0.012044|
|          40|   -5.161582|   -7.039913|    0.823937|    0.012042|
|          41|   -5.156132|   -7.058608|    0.823928|    0.012039|
|          42|   -5.150636|   -7.078533|    0.823919|    0.012037|
|          43|   -5.145219|   -7.098184|    0.823910|    0.012034|
|          44|   -5.139958|   -7.115866|    0.823901|    0.012032|
|          45|   -5.134884|   -7.129921|    0.823892|    0.012030|
|          46|   -5.129983|   -7.139081|    0.823883|    0.012028|
|          47|   -5.125202|   -7.142804|    0.823874|    0.012025|
|          48|   -5.120456|   -7.141430|    0.823866|    0.012023|
|          49|   -5.115646|   -7.136038|    0.823858|    0.012021|
|          50|   -5.110672|   -7.128107|    0.823851|    0.012019|
|          51|   -5.105453|   -7.119151|    0.823845|    0.012017|
|          52|   -5.099937|   -7.110461|    0.823839|    0.012014|
|          53|   -5.094115|   -7.103004|    0.823835|    0.012012|
|          54|   -5.088017|   -7.097413|    0.823832|    0.012010|
|          55|   -5.081712|   -7.094030|    0.823830|    0.012008|
|          56|   -5.075290|   -7.092969|    0.823829|    0.012006|
|          57|   -5.068854|   -7.094177|    0.823829|    0.012004|
|          58|   -5.062502|   -7.097476|    0.823830|    0.012001|
|          59|   -5.056320|   -7.102607|    0.823833|    0.011999|
|          60|   -5.050371|   -7.109262|    0.823836|    0.011997|
|          61|   -5.044694|   -7.117101|    0.823840|    0.011995|
|          62|   -5.039304|   -7.125773|    0.823845|    0.011993|
|          63|   -5.034199|   -7.134924|    0.823850|    0.011991|
|          64|   -5.029360|   -7.144210|    0.823856|    0.011989|
|          65|   -5.024766|   -7.153301|    0.823862|    0.011987|
|          66|   -5.020394|   -7.161902|    0.823868|    0.011985|
|          67|   -5.016226|   -7.169762|    0.823874|    0.011983|
|          68|   -5.012253|   -7.176701|    0.823880|    0.011981|
|          69|   -5.008476|   -7.182623|    0.823886|    0.011980|
|          70|   -5.004903|   -7.187523|    0.823891|    0.011978|
|          71|   -5.001548|   -7.191483|    0.823896|    0.011976|
|          72|   -4.998430|   -7.194644|    0.823901|    0.011975|
|          73|   -4.995564|   -7.197175|    0.823906|    0.011974|
|          74|   -4.992963|   -7.199237|    0.823910|    0.011972|
|          75|   -4.990633|   -7.200956|    0.823913|    0.011971|
|          76|   -4.988572|   -7.202402|    0.823916|    0.011970|
|          77|   -4.986773|   -7.203587|    0.823919|    0.011969|
|          78|   -4.985218|   -7.204473|    0.823921|    0.011968|
|          79|   -4.983886|   -7.204996|    0.823924|    0.011967|
|          80|   -4.982750|   -7.205090|    0.823925|    0.011966|
|          81|   -4.981782|   -7.204718|    0.823927|    0.011965|
|          82|   -4.980954|   -7.203885|    0.823928|    0.011964|
|          83|   -4.980238|   -7.202655|    0.823929|    0.011963|
|          84|   -4.979611|   -7.201141|    0.823930|    0.011963|
|          85|   -4.979054|   -7.199497|    0.823931|    0.011962|
|          86|   -4.978554|   -7.197899|    0.823932|    0.011962|
|          87|   -4.978106|   -7.196522|    0.823933|    0.011961|
|          88|   -4.977711|   -7.195522|    0.823933|    0.011961|
|          89|   -4.977378|   -7.195021|    0.823934|    0.011960|
|          90|   -4.977124|   -7.195106|    0.823935|    0.011960|
|          91|   -4.976972|   -7.195825|    0.823936|    0.011960|
|          92|   -4.976953|   -7.197190|    0.823936|    0.011960|
|          93|   -4.977100|   -7.199185|    0.823937|    0.011959|
|          94|   -4.977451|   -7.201773|    0.823938|    0.011959|
|          95|   -4.978045|   -7.204902|    0.823939|    0.011960|
|          96|   -4.978919|   -7.208513|    0.823941|    0.011960|
|          97|   -4.980108|   -7.212545|    0.823942|    0.011960|
|          98|   -4.981639|   -7.216940|    0.823944|    0.011960|
|          99|   -4.983534|   -7.221647|    0.823946|    0.011961|
|         100|   -4.985801|   -7.226618|    0.823948|    0.011961|
|         101|   -4.988441|   -7.231816|    0.823950|    0.011966|
+-----------------------------------------------------------------------+
|Fixed CL Mode                           |Value                         |
+-----------------------------------------------------------------------+
|Current CL                              |0.82395                       |
|Target CL                               |0.824                         |
|Previous AOA                            |2.76594                       |
|Changed AoA by                          |0.000260028                   |
+-----------------------------------------------------------------------+
+----------------------------------------------------------------+
|  Inner_Iter|    rms[Rho]|     rms[nu]|          CL|          CD|
+----------------------------------------------------------------+
|         102|   -3.777947|   -7.226871|    0.823953|    0.011967|
|         103|   -4.163636|   -7.237762|    0.823955|    0.011968|
|         104|   -4.411964|   -7.244871|    0.823958|    0.011968|
|         105|   -4.489912|   -7.251349|    0.823961|    0.011970|
|         106|   -4.537065|   -7.257704|    0.823963|    0.011971|
|         107|   -4.595246|   -7.264053|    0.823966|    0.011972|
|         108|   -4.662845|   -7.270420|    0.823969|    0.011973|
|         109|   -4.726020|   -7.276810|    0.823972|    0.011974|
|         110|   -4.772595|   -7.283224|    0.823975|    0.011976|
|         111|   -4.801758|   -7.289655|    0.823977|    0.011977|
|         112|   -4.819411|   -7.296096|    0.823980|    0.011979|
|         113|   -4.830174|   -7.302547|    0.823982|    0.011980|
|         114|   -4.836638|   -7.309007|    0.823984|    0.011982|
|         115|   -4.841321|   -7.315458|    0.823986|    0.011983|
|         116|   -4.846846|   -7.321866|    0.823988|    0.011984|
|         117|   -4.854884|   -7.328184|    0.823989|    0.011986|
|         118|   -4.865509|   -7.334361|    0.823990|    0.011987|
|         119|   -4.877478|   -7.340356|    0.823991|    0.011988|
|         120|   -4.889134|   -7.346134|    0.823991|    0.011990|
|         121|   -4.899370|   -7.351672|    0.823992|    0.011991|
|         122|   -4.908059|   -7.356957|    0.823992|    0.011992|
|         123|   -4.915764|   -7.361989|    0.823992|    0.011993|
|         124|   -4.923107|   -7.366783|    0.823992|    0.011994|
|         125|   -4.930329|   -7.371368|    0.823992|    0.011995|
|         126|   -4.937221|   -7.375784|    0.823991|    0.011996|
|         127|   -4.943327|   -7.380089|    0.823991|    0.011997|
|         128|   -4.948186|   -7.384346|    0.823990|    0.011998|
|         129|   -4.951497|   -7.388622|    0.823990|    0.011999|
|         130|   -4.953182|   -7.392973|    0.823990|    0.012000|
|         131|   -4.953374|   -7.397452|    0.823989|    0.012001|
|         132|   -4.952381|   -7.402094|    0.823989|    0.012001|
|         133|   -4.950621|   -7.406923|    0.823989|    0.012002|
|         134|   -4.948530|   -7.411940|    0.823989|    0.012003|
|         135|   -4.946486|   -7.417128|    0.823989|    0.012004|
|         136|   -4.944738|   -7.422455|    0.823989|    0.012005|
|         137|   -4.943391|   -7.427868|    0.823989|    0.012005|
|         138|   -4.942410|   -7.433301|    0.823989|    0.012006|
|         139|   -4.941659|   -7.438674|    0.823990|    0.012007|
|         140|   -4.940941|   -7.443897|    0.823990|    0.012008|
|         141|   -4.940053|   -7.448881|    0.823991|    0.012009|
|         142|   -4.938829|   -7.453539|    0.823992|    0.012009|
|         143|   -4.937177|   -7.457795|    0.823992|    0.012010|
|         144|   -4.935093|   -7.461583|    0.823993|    0.012011|
|         145|   -4.932659|   -7.464859|    0.823994|    0.012012|
|         146|   -4.930009|   -7.467599|    0.823994|    0.012012|
|         147|   -4.927298|   -7.469808|    0.823995|    0.012013|
|         148|   -4.924663|   -7.471509|    0.823996|    0.012014|
|         149|   -4.922198|   -7.472744|    0.823997|    0.012015|
|         150|   -4.919950|   -7.473569|    0.823997|    0.012015|
|         151|   -4.917918|   -7.474058|    0.823998|    0.012016|
|         152|   -4.916069|   -7.474294|    0.823998|    0.012016|
|         153|   -4.914355|   -7.474363|    0.823999|    0.012017|
|         154|   -4.912730|   -7.474347|    0.823999|    0.012018|
|         155|   -4.911159|   -7.474321|    0.824000|    0.012018|
|         156|   -4.909626|   -7.474353|    0.824000|    0.012018|
|         157|   -4.908134|   -7.474500|    0.824001|    0.012019|
|         158|   -4.906699|   -7.474802|    0.824001|    0.012019|
|         159|   -4.905347|   -7.475285|    0.824001|    0.012019|
|         160|   -4.904107|   -7.475960|    0.824002|    0.012020|
|         161|   -4.903004|   -7.476827|    0.824002|    0.012020|
|         162|   -4.902057|   -7.477873|    0.824003|    0.012020|
|         163|   -4.901279|   -7.479080|    0.824003|    0.012020|
|         164|   -4.900674|   -7.480424|    0.824004|    0.012020|
|         165|   -4.900242|   -7.481882|    0.824004|    0.012020|
|         166|   -4.899980|   -7.483433|    0.824005|    0.012020|
|         167|   -4.899881|   -7.485069|    0.824005|    0.012020|
|         168|   -4.899936|   -7.486787|    0.824006|    0.012020|
|         169|   -4.900135|   -7.488594|    0.824007|    0.012019|
|         170|   -4.900467|   -7.490504|    0.824008|    0.012019|
|         171|   -4.900918|   -7.492538|    0.824009|    0.012019|
|         172|   -4.901474|   -7.494727|    0.824010|    0.012019|
|         173|   -4.902119|   -7.497104|    0.824011|    0.012018|
|         174|   -4.902836|   -7.499700|    0.824012|    0.012018|
|         175|   -4.903607|   -7.502550|    0.824013|    0.012018|
|         176|   -4.904415|   -7.505683|    0.824014|    0.012017|
|         177|   -4.905245|   -7.509117|    0.824015|    0.012017|
|         178|   -4.906084|   -7.512862|    0.824016|    0.012016|
|         179|   -4.906923|   -7.516914|    0.824017|    0.012016|
|         180|   -4.907758|   -7.521251|    0.824018|    0.012015|
|         181|   -4.908592|   -7.525842|    0.824019|    0.012015|
|         182|   -4.909433|   -7.530643|    0.824020|    0.012014|
|         183|   -4.910296|   -7.535600|    0.824021|    0.012014|
|         184|   -4.911203|   -7.540647|    0.824022|    0.012013|
|         185|   -4.912184|   -7.545715|    0.824023|    0.012013|
|         186|   -4.913271|   -7.550731|    0.824023|    0.012012|
|         187|   -4.914503|   -7.555622|    0.824024|    0.012011|
|         188|   -4.915922|   -7.560318|    0.824025|    0.012011|
|         189|   -4.917568|   -7.564760|    0.824025|    0.012010|
|         190|   -4.919485|   -7.568895|    0.824026|    0.012009|
|         191|   -4.921710|   -7.572695|    0.824026|    0.012009|
|         192|   -4.924280|   -7.576146|    0.824026|    0.012008|
|         193|   -4.927223|   -7.579256|    0.824026|    0.012007|
|         194|   -4.930561|   -7.582052|    0.824026|    0.012006|
|         195|   -4.934304|   -7.584577|    0.824026|    0.012006|
|         196|   -4.938455|   -7.586893|    0.824026|    0.012005|
|         197|   -4.943002|   -7.589069|    0.824026|    0.012004|
|         198|   -4.947921|   -7.591184|    0.824026|    0.012003|
|         199|   -4.953174|   -7.593323|    0.824026|    0.012002|
|         200|   -4.958710|   -7.595570|    0.824025|    0.012002|
|         201|   -4.964463|   -7.598000|    0.824025|    0.011999|
+-----------------------------------------------------------------------+
|Fixed CL Mode                           |Value                         |
+-----------------------------------------------------------------------+
|Current CL                              |0.824025                      |
|Target CL                               |0.824                         |
|Previous AOA                            |2.7662                        |
|Changed AoA by                          |-0.000127165                  |
+-----------------------------------------------------------------------+
+----------------------------------------------------------------+
|  Inner_Iter|    rms[Rho]|     rms[nu]|          CL|          CD|
+----------------------------------------------------------------+
|         202|   -4.085743|   -7.585714|    0.824025|    0.011998|
|         203|   -4.455051|   -7.595275|    0.824025|    0.011997|
|         204|   -4.661739|   -7.600355|    0.824024|    0.011997|
|         205|   -4.717674|   -7.605033|    0.824024|    0.011996|
|         206|   -4.754701|   -7.609943|    0.824024|    0.011995|
|         207|   -4.801275|   -7.615206|    0.824023|    0.011994|
|         208|   -4.853153|   -7.620823|    0.824023|    0.011994|
|         209|   -4.899362|   -7.626755|    0.824023|    0.011993|
|         210|   -4.932460|   -7.632926|    0.824023|    0.011992|
|         211|   -4.952802|   -7.639230|    0.824022|    0.011992|
|         212|   -4.964381|   -7.645550|    0.824022|    0.011991|
|         213|   -4.970404|   -7.651782|    0.824022|    0.011991|
|         214|   -4.972925|   -7.657836|    0.824022|    0.011990|
|         215|   -4.973754|   -7.663621|    0.824022|    0.011990|
|         216|   -4.974530|   -7.669037|    0.824022|    0.011989|
|         217|   -4.976260|   -7.673975|    0.824023|    0.011989|
|         218|   -4.979090|   -7.678337|    0.824023|    0.011989|
|         219|   -4.982540|   -7.682036|    0.824023|    0.011988|
|         220|   -4.985989|   -7.685007|    0.824023|    0.011988|
|         221|   -4.989087|   -7.687210|    0.824024|    0.011988|
|         222|   -4.991884|   -7.688634|    0.824024|    0.011988|
|         223|   -4.994692|   -7.689292|    0.824025|    0.011988|
|         224|   -4.997852|   -7.689226|    0.824025|    0.011988|
|         225|   -5.001586|   -7.688502|    0.824026|    0.011988|
|         226|   -5.005977|   -7.687216|    0.824027|    0.011988|
|         227|   -5.011023|   -7.685480|    0.824028|    0.011988|
|         228|   -5.016699|   -7.683416|    0.824029|    0.011988|
|         229|   -5.022985|   -7.681150|    0.824030|    0.011988|
|         230|   -5.029877|   -7.678809|    0.824031|    0.011988|
|         231|   -5.037383|   -7.676511|    0.824032|    0.011989|
|         232|   -5.045529|   -7.674367|    0.824033|    0.011989|
|         233|   -5.054361|   -7.672475|    0.824034|    0.011989|
|         234|   -5.063939|   -7.670918|    0.824036|    0.011989|
|         235|   -5.074324|   -7.669765|    0.824037|    0.011990|
|         236|   -5.085559|   -7.669063|    0.824038|    0.011990|
|         237|   -5.097649|   -7.668840|    0.824040|    0.011991|
|         238|   -5.110554|   -7.669105|    0.824041|    0.011991|
|         239|   -5.124177|   -7.669849|    0.824043|    0.011992|
|         240|   -5.138370|   -7.671050|    0.824044|    0.011992|
|         241|   -5.152938|   -7.672666|    0.824046|    0.011993|
|         242|   -5.167657|   -7.674641|    0.824047|    0.011993|
|         243|   -5.182302|   -7.676907|    0.824049|    0.011994|
|         244|   -5.196663|   -7.679388|    0.824051|    0.011994|
|         245|   -5.210577|   -7.681996|    0.824052|    0.011995|
|         246|   -5.223927|   -7.684640|    0.824054|    0.011996|
|         247|   -5.236643|   -7.687228|    0.824055|    0.011996|
|         248|   -5.248685|   -7.689670|    0.824056|    0.011997|
|         249|   -5.260016|   -7.691880|    0.824058|    0.011997|
|         250|   -5.270591|   -7.693785|    0.824059|    0.011998|
|         251|   -5.280346|   -7.695326|    0.824060|    0.011999|
|         252|   -5.289204|   -7.696463|    0.824061|    0.011999|
|         253|   -5.297083|   -7.697181|    0.824062|    0.012000|
|         254|   -5.303920|   -7.697485|    0.824063|    0.012000|
|         255|   -5.309681|   -7.697404|    0.824064|    0.012001|
|         256|   -5.314375|   -7.696987|    0.824064|    0.012001|
|         257|   -5.318055|   -7.696300|    0.824065|    0.012002|
|         258|   -5.320810|   -7.695422|    0.824065|    0.012002|
|         259|   -5.322755|   -7.694439|    0.824065|    0.012003|
|         260|   -5.324015|   -7.693441|    0.824065|    0.012003|
|         261|   -5.324714|   -7.692516|    0.824065|    0.012004|
|         262|   -5.324967|   -7.691746|    0.824064|    0.012004|
|         263|   -5.324876|   -7.691199|    0.824064|    0.012005|
|         264|   -5.324528|   -7.690934|    0.824063|    0.012005|
|         265|   -5.323998|   -7.690991|    0.824062|    0.012005|
|         266|   -5.323351|   -7.691393|    0.824062|    0.012006|
|         267|   -5.322642|   -7.692143|    0.824060|    0.012006|
|         268|   -5.321922|   -7.693223|    0.824059|    0.012006|
|         269|   -5.321236|   -7.694596|    0.824058|    0.012006|
|         270|   -5.320624|   -7.696203|    0.824057|    0.012007|
|         271|   -5.320121|   -7.697967|    0.824055|    0.012007|
|         272|   -5.319757|   -7.699796|    0.824054|    0.012007|
|         273|   -5.319558|   -7.701584|    0.824052|    0.012007|
|         274|   -5.319544|   -7.703219|    0.824051|    0.012007|
|         275|   -5.319734|   -7.704586|    0.824049|    0.012007|
|         276|   -5.320140|   -7.705575|    0.824048|    0.012007|
|         277|   -5.320772|   -7.706092|    0.824046|    0.012007|
|         278|   -5.321639|   -7.706063|    0.824045|    0.012007|
|         279|   -5.322747|   -7.705439|    0.824043|    0.012007|
|         280|   -5.324098|   -7.704201|    0.824042|    0.012007|
|         281|   -5.325694|   -7.702365|    0.824041|    0.012007|
|         282|   -5.327534|   -7.699976|    0.824039|    0.012007|
|         283|   -5.329614|   -7.697110|    0.824038|    0.012007|
|         284|   -5.331930|   -7.693865|    0.824037|    0.012007|
|         285|   -5.334472|   -7.690357|    0.824036|    0.012007|
|         286|   -5.337230|   -7.686711|    0.824035|    0.012007|
|         287|   -5.340192|   -7.683058|    0.824035|    0.012007|
|         288|   -5.343342|   -7.679525|    0.824034|    0.012006|
|         289|   -5.346664|   -7.676233|    0.824033|    0.012006|
|         290|   -5.350137|   -7.673289|    0.824033|    0.012006|
|         291|   -5.353743|   -7.670786|    0.824032|    0.012006|
|         292|   -5.357460|   -7.668802|    0.824032|    0.012006|
|         293|   -5.361268|   -7.667400|    0.824032|    0.012005|
|         294|   -5.365144|   -7.666625|    0.824032|    0.012005|
|         295|   -5.369069|   -7.666507|    0.824032|    0.012005|
|         296|   -5.373024|   -7.667062|    0.824032|    0.012004|
|         297|   -5.376990|   -7.668292|    0.824032|    0.012004|
|         298|   -5.380952|   -7.670184|    0.824032|    0.012004|
|         299|   -5.384897|   -7.672715|    0.824033|    0.012004|
|         300|   -5.388812|   -7.675850|    0.824033|    0.012003|
|         301|   -5.392691|   -7.679545|    0.824033|    0.012000|
+-----------------------------------------------------------------------+
|Fixed CL Mode                           |Value                         |
+-----------------------------------------------------------------------+
|Current CL                              |0.824033                      |
|Target CL                               |0.824                         |
|Previous AOA                            |2.76607                       |
|Changed AoA by                          |-0.000164145                  |
+-----------------------------------------------------------------------+
+----------------------------------------------------------------+
|  Inner_Iter|    rms[Rho]|     rms[nu]|          CL|          CD|
+----------------------------------------------------------------+
|         302|   -3.977736|   -7.650107|    0.824034|    0.012000|
|         303|   -4.360001|   -7.670588|    0.824034|    0.012000|
|         304|   -4.598584|   -7.680454|    0.824035|    0.011999|
|         305|   -4.674446|   -7.688428|    0.824035|    0.011999|
|         306|   -4.726148|   -7.695845|    0.824036|    0.011999|
|         307|   -4.792623|   -7.702980|    0.824036|    0.011998|
|         308|   -4.873357|   -7.709901|    0.824037|    0.011998|
|         309|   -4.955531|   -7.716634|    0.824038|    0.011997|
|         310|   -5.024228|   -7.723188|    0.824038|    0.011997|
|         311|   -5.073317|   -7.729540|    0.824039|    0.011997|
|         312|   -5.105433|   -7.735671|    0.824040|    0.011996|
|         313|   -5.124447|   -7.741600|    0.824040|    0.011996|
|         314|   -5.133723|   -7.747368|    0.824041|    0.011996|
|         315|   -5.137928|   -7.753010|    0.824042|    0.011995|
|         316|   -5.142299|   -7.758534|    0.824042|    0.011995|
|         317|   -5.150392|   -7.763934|    0.824043|    0.011994|
|         318|   -5.163032|   -7.769215|    0.824044|    0.011994|
|         319|   -5.178784|   -7.774403|    0.824045|    0.011994|
|         320|   -5.195254|   -7.779534|    0.824045|    0.011993|
|         321|   -5.210559|   -7.784647|    0.824046|    0.011993|
|         322|   -5.224179|   -7.789771|    0.824047|    0.011993|
|         323|   -5.236750|   -7.794922|    0.824048|    0.011993|
|         324|   -5.249190|   -7.800113|    0.824049|    0.011992|
|         325|   -5.261959|   -7.805355|    0.824049|    0.011992|
|         326|   -5.274873|   -7.810660|    0.824050|    0.011992|
|         327|   -5.287333|   -7.816048|    0.824051|    0.011991|
|         328|   -5.298661|   -7.821542|    0.824052|    0.011991|
|         329|   -5.308330|   -7.827168|    0.824053|    0.011991|
|         330|   -5.316067|   -7.832950|    0.824054|    0.011991|
|         331|   -5.321868|   -7.838906|    0.824054|    0.011991|
|         332|   -5.325999|   -7.845052|    0.824055|    0.011991|
|         333|   -5.328948|   -7.851393|    0.824056|    0.011990|
|         334|   -5.331324|   -7.857924|    0.824057|    0.011990|
|         335|   -5.333717|   -7.864627|    0.824058|    0.011990|
|         336|   -5.336566|   -7.871474|    0.824059|    0.011990|
|         337|   -5.340088|   -7.878429|    0.824060|    0.011990|
|         338|   -5.344263|   -7.885449|    0.824060|    0.011990|
|         339|   -5.348865|   -7.892486|    0.824061|    0.011990|
|         340|   -5.353517|   -7.899489|    0.824062|    0.011990|
|         341|   -5.357784|   -7.906408|    0.824063|    0.011990|
|         342|   -5.361271|   -7.913189|    0.824063|    0.011990|
|         343|   -5.363723|   -7.919781|    0.824064|    0.011990|
|         344|   -5.365099|   -7.926139|    0.824065|    0.011990|
|         345|   -5.365570|   -7.932218|    0.824066|    0.011990|
|         346|   -5.365469|   -7.937974|    0.824066|    0.011990|
|         347|   -5.365192|   -7.943367|    0.824067|    0.011990|
|         348|   -5.365100|   -7.948363|    0.824067|    0.011990|
|         349|   -5.365457|   -7.952928|    0.824068|    0.011990|
|         350|   -5.366392|   -7.957038|    0.824068|    0.011991|
|         351|   -5.367913|   -7.960672|    0.824068|    0.011991|
|         352|   -5.369934|   -7.963817|    0.824069|    0.011991|
|         353|   -5.372321|   -7.966471|    0.824069|    0.011991|
|         354|   -5.374934|   -7.968641|    0.824069|    0.011991|
|         355|   -5.377662|   -7.970350|    0.824069|    0.011991|
|         356|   -5.380446|   -7.971627|    0.824069|    0.011991|
|         357|   -5.383282|   -7.972514|    0.824069|    0.011992|
|         358|   -5.386210|   -7.973065|    0.824069|    0.011992|
|         359|   -5.389303|   -7.973347|    0.824068|    0.011992|
|         360|   -5.392639|   -7.973431|    0.824068|    0.011992|
|         361|   -5.396295|   -7.973399|    0.824067|    0.011992|
|         362|   -5.400328|   -7.973333|    0.824067|    0.011993|
|         363|   -5.404775|   -7.973317|    0.824066|    0.011993|
|         364|   -5.409654|   -7.973435|    0.824065|    0.011993|
|         365|   -5.414967|   -7.973766|    0.824064|    0.011993|
|         366|   -5.420705|   -7.974385|    0.824064|    0.011993|
|         367|   -5.426854|   -7.975357|    0.824063|    0.011993|
|         368|   -5.433400|   -7.976741|    0.824062|    0.011994|
|         369|   -5.440325|   -7.978584|    0.824061|    0.011994|
|         370|   -5.447614|   -7.980920|    0.824059|    0.011994|
|         371|   -5.455246|   -7.983769|    0.824058|    0.011994|
|         372|   -5.463199|   -7.987138|    0.824057|    0.011994|
|         373|   -5.471443|   -7.991016|    0.824056|    0.011995|
|         374|   -5.479942|   -7.995379|    0.824055|    0.011995|
|         375|   -5.488653|   -8.000182|    0.824053|    0.011995|
|         376|   -5.497524|   -8.005362|    0.824052|    0.011995|
|         377|   -5.506494|   -8.010837|    0.824051|    0.011995|
|         378|   -5.515499|   -8.016505|    0.824050|    0.011995|
|         379|   -5.524466|   -8.022246|    0.824049|    0.011995|
|         380|   -5.533318|   -8.027927|    0.824048|    0.011996|
|         381|   -5.541979|   -8.033401|    0.824047|    0.011996|
|         382|   -5.550366|   -8.038513|    0.824046|    0.011996|
|         383|   -5.558402|   -8.043115|    0.824045|    0.011996|
|         384|   -5.566010|   -8.047067|    0.824044|    0.011996|
|         385|   -5.573120|   -8.050254|    0.824043|    0.011996|
|         386|   -5.579671|   -8.052585|    0.824042|    0.011996|
|         387|   -5.585611|   -8.054011|    0.824041|    0.011996|
|         388|   -5.590900|   -8.054519|    0.824040|    0.011996|
|         389|   -5.595513|   -8.054142|    0.824040|    0.011997|
|         390|   -5.599440|   -8.052950|    0.824039|    0.011997|
|         391|   -5.602683|   -8.051051|    0.824039|    0.011997|
|         392|   -5.605260|   -8.048579|    0.824038|    0.011997|
|         393|   -5.607199|   -8.045684|    0.824038|    0.011997|
|         394|   -5.608540|   -8.042525|    0.824037|    0.011997|
|         395|   -5.609329|   -8.039259|    0.824037|    0.011997|
|         396|   -5.609618|   -8.036041|    0.824037|    0.011997|
|         397|   -5.609463|   -8.033014|    0.824036|    0.011997|
|         398|   -5.608920|   -8.030307|    0.824036|    0.011997|
|         399|   -5.608045|   -8.028029|    0.824036|    0.011997|
|         400|   -5.606892|   -8.026273|    0.824036|    0.011997|
|         401|   -5.605514|   -8.025112|    0.824036|    0.011994|
+-----------------------------------------------------------------------+
|Fixed CL Mode                           |Value                         |
+-----------------------------------------------------------------------+
|Current CL                              |0.824036                      |
|Target CL                               |0.824                         |
|Previous AOA                            |2.76591                       |
|Changed AoA by                          |-0.000178714                  |
+-----------------------------------------------------------------------+
+----------------------------------------------------------------+
|  Inner_Iter|    rms[Rho]|     rms[nu]|          CL|          CD|
+----------------------------------------------------------------+
|         402|   -3.941194|   -7.882124|    0.824036|    0.011994|
|         403|   -4.325208|   -7.943617|    0.824036|    0.011994|
|         404|   -4.567469|   -7.966182|    0.824036|    0.011994|
|         405|   -4.644835|   -7.980219|    0.824036|    0.011994|
|         406|   -4.697523|   -7.991302|    0.824036|    0.011994|
|         407|   -4.766001|   -8.000804|    0.824036|    0.011994|
|         408|   -4.850394|   -8.009223|    0.824036|    0.011994|
|         409|   -4.937965|   -8.016900|    0.824036|    0.011994|
|         410|   -5.012776|   -8.024053|    0.824036|    0.011994|
|         411|   -5.067168|   -8.030730|    0.824036|    0.011994|
|         412|   -5.103006|   -8.036960|    0.824036|    0.011993|
|         413|   -5.124031|   -8.042901|    0.824036|    0.011993|
|         414|   -5.133821|   -8.048795|    0.824036|    0.011993|
|         415|   -5.137764|   -8.054785|    0.824036|    0.011993|
|         416|   -5.142003|   -8.060848|    0.824036|    0.011993|
|         417|   -5.150709|   -8.066841|    0.824036|    0.011993|
|         418|   -5.164889|   -8.072627|    0.824037|    0.011993|
|         419|   -5.182936|   -8.078123|    0.824037|    0.011993|
|         420|   -5.202081|   -8.083298|    0.824037|    0.011993|
|         421|   -5.220080|   -8.088115|    0.824037|    0.011992|
|         422|   -5.236294|   -8.092491|    0.824037|    0.011992|
|         423|   -5.251515|   -8.096303|    0.824037|    0.011992|
|         424|   -5.266916|   -8.099418|    0.824037|    0.011992|
|         425|   -5.283119|   -8.101721|    0.824037|    0.011992|
|         426|   -5.299918|   -8.103157|    0.824037|    0.011992|
|         427|   -5.316528|   -8.103745|    0.824037|    0.011992|
|         428|   -5.332002|   -8.103550|    0.824037|    0.011992|
|         429|   -5.345563|   -8.102675|    0.824037|    0.011992|
|         430|   -5.356771|   -8.101254|    0.824037|    0.011992|
|         431|   -5.365597|   -8.099430|    0.824037|    0.011991|
|         432|   -5.372438|   -8.097347|    0.824036|    0.011991|
|         433|   -5.378051|   -8.095145|    0.824036|    0.011991|
|         434|   -5.383391|   -8.092928|    0.824036|    0.011991|
|         435|   -5.389394|   -8.090778|    0.824036|    0.011991|
|         436|   -5.396785|   -8.088752|    0.824036|    0.011991|
|         437|   -5.405967|   -8.086887|    0.824036|    0.011991|
|         438|   -5.416980|   -8.085201|    0.824036|    0.011991|
|         439|   -5.429514|   -8.083704|    0.824035|    0.011991|
|         440|   -5.442953|   -8.082395|    0.824035|    0.011991|
|         441|   -5.456464|   -8.081269|    0.824035|    0.011991|
|         442|   -5.469148|   -8.080319|    0.824035|    0.011991|
|         443|   -5.480252|   -8.079535|    0.824035|    0.011991|
|         444|   -5.489373|   -8.078911|    0.824034|    0.011991|
|         445|   -5.496570|   -8.078431|    0.824034|    0.011991|
|         446|   -5.502323|   -8.078077|    0.824034|    0.011991|
|         447|   -5.507354|   -8.077819|    0.824034|    0.011991|
|         448|   -5.512402|   -8.077622|    0.824033|    0.011991|
|         449|   -5.518040|   -8.077440|    0.824033|    0.011991|
|         450|   -5.524573|   -8.077219|    0.824033|    0.011991|
|         451|   -5.532027|   -8.076901|    0.824032|    0.011991|
|         452|   -5.540183|   -8.076427|    0.824032|    0.011991|
|         453|   -5.548668|   -8.075732|    0.824032|    0.011991|
|         454|   -5.557047|   -8.074769|    0.824031|    0.011991|
|         455|   -5.564926|   -8.073482|    0.824031|    0.011991|
|         456|   -5.572029|   -8.071833|    0.824030|    0.011991|
|         457|   -5.578232|   -8.069802|    0.824030|    0.011991|
|         458|   -5.583567|   -8.067386|    0.824029|    0.011991|
|         459|   -5.588171|   -8.064605|    0.824029|    0.011991|
|         460|   -5.592240|   -8.061498|    0.824028|    0.011991|
|         461|   -5.595967|   -8.058120|    0.824027|    0.011991|
|         462|   -5.599512|   -8.054546|    0.824026|    0.011992|
|         463|   -5.602978|   -8.050860|    0.824026|    0.011992|
|         464|   -5.606420|   -8.047159|    0.824025|    0.011992|
|         465|   -5.609856|   -8.043542|    0.824024|    0.011992|
|         466|   -5.613281|   -8.040112|    0.824023|    0.011992|
|         467|   -5.616688|   -8.036969|    0.824022|    0.011992|
|         468|   -5.620075|   -8.034205|    0.824021|    0.011992|
|         469|   -5.623451|   -8.031904|    0.824020|    0.011992|
|         470|   -5.626834|   -8.030140|    0.824019|    0.011992|
|         471|   -5.630249|   -8.028971|    0.824018|    0.011992|
|         472|   -5.633724|   -8.028439|    0.824017|    0.011992|
|         473|   -5.637282|   -8.028570|    0.824016|    0.011993|
|         474|   -5.640943|   -8.029372|    0.824015|    0.011993|
|         475|   -5.644720|   -8.030834|    0.824015|    0.011993|
|         476|   -5.648622|   -8.032924|    0.824014|    0.011993|
|         477|   -5.652653|   -8.035589|    0.824013|    0.011993|
|         478|   -5.656816|   -8.038755|    0.824012|    0.011993|
|         479|   -5.661111|   -8.042331|    0.824011|    0.011993|
|         480|   -5.665537|   -8.046204|    0.824011|    0.011993|
|         481|   -5.670097|   -8.050246|    0.824010|    0.011993|
|         482|   -5.674789|   -8.054318|    0.824009|    0.011993|
|         483|   -5.679613|   -8.058272|    0.824009|    0.011993|
|         484|   -5.684568|   -8.061960|    0.824008|    0.011993|
|         485|   -5.689652|   -8.065243|    0.824008|    0.011994|
|         486|   -5.694862|   -8.068000|    0.824008|    0.011994|
|         487|   -5.700192|   -8.070132|    0.824008|    0.011994|
|         488|   -5.705637|   -8.071575|    0.824007|    0.011994|
|         489|   -5.711189|   -8.072303|    0.824007|    0.011994|
|         490|   -5.716839|   -8.072327|    0.824007|    0.011994|
|         491|   -5.722574|   -8.071700|    0.824007|    0.011994|
|         492|   -5.728383|   -8.070506|    0.824007|    0.011994|
|         493|   -5.734248|   -8.068858|    0.824008|    0.011994|
|         494|   -5.740151|   -8.066888|    0.824008|    0.011994|
|         495|   -5.746069|   -8.064738|    0.824008|    0.011994|
|         496|   -5.751979|   -8.062552|    0.824008|    0.011994|
|         497|   -5.757851|   -8.060470|    0.824009|    0.011994|
|         498|   -5.763654|   -8.058620|    0.824009|    0.011994|
|         499|   -5.769354|   -8.057114|    0.824010|    0.011994|
|         500|   -5.774915|   -8.056047|    0.824010|    0.011994|
|         501|   -5.780296|   -8.055496|    0.824011|    0.011993|
+-----------------------------------------------------------------------+
|Fixed CL Mode                           |Value                         |
+-----------------------------------------------------------------------+
|Current CL                              |0.824011                      |
|Target CL                               |0.824                         |
|Previous AOA                            |2.76573                       |
|Changed AoA by                          |-5.0472e-05                   |
+-----------------------------------------------------------------------+
+----------------------------------------------------------------+
|  Inner_Iter|    rms[Rho]|     rms[nu]|          CL|          CD|
+----------------------------------------------------------------+
|         502|   -4.490013|   -8.038078|    0.824011|    0.011993|
|         503|   -4.872040|   -8.047508|    0.824012|    0.011993|
|         504|   -5.108296|   -8.051338|    0.824012|    0.011993|
|         505|   -5.181055|   -8.054602|    0.824013|    0.011993|
|         506|   -5.229924|   -8.058054|    0.824013|    0.011992|
|         507|   -5.293020|   -8.061831|    0.824014|    0.011992|
|         508|   -5.369190|   -8.065935|    0.824014|    0.011992|
|         509|   -5.445697|   -8.070337|    0.824015|    0.011992|
|         510|   -5.508801|   -8.074990|    0.824015|    0.011992|
|         511|   -5.553643|   -8.079825|    0.824016|    0.011992|
|         512|   -5.583141|   -8.084770|    0.824016|    0.011992|
|         513|   -5.600897|   -8.089767|    0.824017|    0.011992|
|         514|   -5.609801|   -8.094761|    0.824017|    0.011991|
|         515|   -5.613770|   -8.099700|    0.824018|    0.011991|
|         516|   -5.617250|   -8.104516|    0.824018|    0.011991|
|         517|   -5.623302|   -8.109146|    0.824018|    0.011991|
|         518|   -5.632654|   -8.113535|    0.824019|    0.011991|
|         519|   -5.644136|   -8.117648|    0.824019|    0.011991|
|         520|   -5.655867|   -8.121467|    0.824019|    0.011991|
|         521|   -5.666485|   -8.124986|    0.824020|    0.011991|
|         522|   -5.675734|   -8.128205|    0.824020|    0.011990|
|         523|   -5.684180|   -8.131129|    0.824020|    0.011990|
|         524|   -5.692491|   -8.133771|    0.824020|    0.011990|
|         525|   -5.700913|   -8.136148|    0.824020|    0.011990|
|         526|   -5.709202|   -8.138288|    0.824020|    0.011990|
|         527|   -5.716851|   -8.140226|    0.824020|    0.011990|
|         528|   -5.723377|   -8.141999|    0.824020|    0.011990|
|         529|   -5.728493|   -8.143646|    0.824020|    0.011989|
|         530|   -5.732159|   -8.145204|    0.824019|    0.011989|
|         531|   -5.734556|   -8.146706|    0.824019|    0.011989|
|         532|   -5.736040|   -8.148176|    0.824019|    0.011989|
|         533|   -5.737081|   -8.149636|    0.824019|    0.011989|
|         534|   -5.738174|   -8.151099|    0.824018|    0.011989|
|         535|   -5.739751|   -8.152570|    0.824018|    0.011989|
|         536|   -5.742105|   -8.154045|    0.824018|    0.011989|
|         537|   -5.745362|   -8.155515|    0.824017|    0.011989|
|         538|   -5.749480|   -8.156968|    0.824017|    0.011989|
|         539|   -5.754277|   -8.158392|    0.824017|    0.011989|
|         540|   -5.759480|   -8.159777|    0.824016|    0.011989|
|         541|   -5.764778|   -8.161116|    0.824016|    0.011989|
|         542|   -5.769891|   -8.162409|    0.824015|    0.011989|
|         543|   -5.774625|   -8.163664|    0.824015|    0.011989|
|         544|   -5.778913|   -8.164894|    0.824015|    0.011989|
|         545|   -5.782827|   -8.166119|    0.824014|    0.011989|
|         546|   -5.786542|   -8.167366|    0.824014|    0.011989|
|         547|   -5.790286|   -8.168665|    0.824013|    0.011989|
|         548|   -5.794275|   -8.170046|    0.824013|    0.011989|
|         549|   -5.798670|   -8.171540|    0.824012|    0.011989|
|         550|   -5.803541|   -8.173174|    0.824012|    0.011989|
|         551|   -5.808871|   -8.174973|    0.824012|    0.011989|
|         552|   -5.814572|   -8.176950|    0.824011|    0.011989|
|         553|   -5.820507|   -8.179114|    0.824011|    0.011989|
|         554|   -5.826528|   -8.181458|    0.824011|    0.011989|
|         555|   -5.832498|   -8.183966|    0.824010|    0.011989|
|         556|   -5.838316|   -8.186612|    0.824010|    0.011989|
|         557|   -5.843918|   -8.189354|    0.824010|    0.011989|
|         558|   -5.849281|   -8.192138|    0.824009|    0.011990|
|         559|   -5.854405|   -8.194900|    0.824009|    0.011990|
|         560|   -5.859305|   -8.197569|    0.824009|    0.011990|
|         561|   -5.863993|   -8.200068|    0.824008|    0.011990|
|         562|   -5.868474|   -8.202321|    0.824008|    0.011990|
|         563|   -5.872737|   -8.204254|    0.824008|    0.011991|
|         564|   -5.876760|   -8.205805|    0.824007|    0.011991|
|         565|   -5.880512|   -8.206921|    0.824007|    0.011991|
|         566|   -5.883961|   -8.207569|    0.824007|    0.011991|
|         567|   -5.887075|   -8.207733|    0.824006|    0.011991|
|         568|   -5.889830|   -8.207422|    0.824006|    0.011992|
|         569|   -5.892210|   -8.206664|    0.824005|    0.011992|
|         570|   -5.894208|   -8.205506|    0.824005|    0.011992|
|         571|   -5.895825|   -8.204014|    0.824005|    0.011992|
|         572|   -5.897067|   -8.202265|    0.824004|    0.011993|
|         573|   -5.897949|   -8.200344|    0.824004|    0.011993|
|         574|   -5.898485|   -8.198341|    0.824004|    0.011993|
|         575|   -5.898699|   -8.196346|    0.824003|    0.011993|
|         576|   -5.898614|   -8.194440|    0.824003|    0.011993|
|         577|   -5.898260|   -8.192700|    0.824002|    0.011994|
|         578|   -5.897667|   -8.191191|    0.824002|    0.011994|
|         579|   -5.896872|   -8.189963|    0.824002|    0.011994|
|         580|   -5.895912|   -8.189056|    0.824001|    0.011994|
|         581|   -5.894826|   -8.188493|    0.824001|    0.011995|
|         582|   -5.893655|   -8.188281|    0.824001|    0.011995|
|         583|   -5.892441|   -8.188415|    0.824000|    0.011995|
|         584|   -5.891224|   -8.188875|    0.824000|    0.011995|
|         585|   -5.890044|   -8.189630|    0.824000|    0.011995|
|         586|   -5.888940|   -8.190642|    0.823999|    0.011996|
|         587|   -5.887948|   -8.191859|    0.823999|    0.011996|
|         588|   -5.887105|   -8.193227|    0.823999|    0.011996|
|         589|   -5.886442|   -8.194683|    0.823999|    0.011996|
|         590|   -5.885990|   -8.196167|    0.823998|    0.011996|
|         591|   -5.885775|   -8.197618|    0.823998|    0.011996|
|         592|   -5.885824|   -8.198978|    0.823998|    0.011996|
|         593|   -5.886157|   -8.200198|    0.823998|    0.011996|
|         594|   -5.886795|   -8.201233|    0.823998|    0.011997|
|         595|   -5.887753|   -8.202053|    0.823997|    0.011997|
|         596|   -5.889044|   -8.202637|    0.823997|    0.011997|
|         597|   -5.890680|   -8.202975|    0.823997|    0.011997|
|         598|   -5.892667|   -8.203070|    0.823997|    0.011997|
|         599|   -5.895010|   -8.202935|    0.823997|    0.011997|
|         600|   -5.897710|   -8.202588|    0.823997|    0.011997|
|         601|   -5.900765|   -8.202056|    0.823997|    0.011997|
+-----------------------------------------------------------------------+
|Fixed CL Mode                           |Value                         |
+-----------------------------------------------------------------------+
|Current CL                              |0.823997                      |
|Target CL                               |0.824                         |
|Previous AOA                            |2.76568                       |
|Changed AoA by                          |1.55015e-05                   |
+-----------------------------------------------------------------------+
+----------------------------------------------------------------+
|  Inner_Iter|    rms[Rho]|     rms[nu]|          CL|          CD|
+----------------------------------------------------------------+
|         602|   -4.999344|   -8.197865|    0.823997|    0.011997|
|         603|   -5.369292|   -8.198844|    0.823997|    0.011997|
|         604|   -5.583818|   -8.198485|    0.823997|    0.011997|
|         605|   -5.647257|   -8.197789|    0.823997|    0.011997|
|         606|   -5.687201|   -8.196937|    0.823997|    0.011997|
|         607|   -5.733873|   -8.195996|    0.823997|    0.011997|
|         608|   -5.783990|   -8.195008|    0.823997|    0.011997|
|         609|   -5.827336|   -8.194004|    0.823997|    0.011997|
|         610|   -5.857727|   -8.193002|    0.823997|    0.011997|
|         611|   -5.876709|   -8.192011|    0.823997|    0.011997|
|         612|   -5.888659|   -8.191034|    0.823997|    0.011997|
|         613|   -5.896552|   -8.190075|    0.823997|    0.011996|
|         614|   -5.902047|   -8.189139|    0.823997|    0.011996|
|         615|   -5.906627|   -8.188229|    0.823997|    0.011996|
|         616|   -5.911731|   -8.187350|    0.823997|    0.011996|
|         617|   -5.918246|   -8.186505|    0.823997|    0.011996|
|         618|   -5.926175|   -8.185702|    0.823997|    0.011996|
|         619|   -5.934807|   -8.184954|    0.823997|    0.011996|
|         620|   -5.943208|   -8.184274|    0.823997|    0.011995|
|         621|   -5.950716|   -8.183680|    0.823996|    0.011995|
|         622|   -5.957159|   -8.183189|    0.823996|    0.011995|
|         623|   -5.962730|   -8.182821|    0.823996|    0.011995|
|         624|   -5.967713|   -8.182593|    0.823996|    0.011995|
|         625|   -5.972277|   -8.182523|    0.823996|    0.011995|
|         626|   -5.976434|   -8.182628|    0.823996|    0.011994|
|         627|   -5.980099|   -8.182919|    0.823996|    0.011994|
|         628|   -5.983171|   -8.183409|    0.823996|    0.011994|
|         629|   -5.985579|   -8.184102|    0.823996|    0.011994|
|         630|   -5.987295|   -8.185001|    0.823996|    0.011994|
|         631|   -5.988343|   -8.186104|    0.823996|    0.011993|
|         632|   -5.988796|   -8.187403|    0.823996|    0.011993|
|         633|   -5.988778|   -8.188888|    0.823996|    0.011993|
|         634|   -5.988444|   -8.190543|    0.823995|    0.011993|
|         635|   -5.987961|   -8.192351|    0.823995|    0.011993|
|         636|   -5.987472|   -8.194291|    0.823995|    0.011993|
|         637|   -5.987085|   -8.196341|    0.823995|    0.011992|
|         638|   -5.986861|   -8.198480|    0.823995|    0.011992|
|         639|   -5.986819|   -8.200685|    0.823995|    0.011992|
|         640|   -5.986950|   -8.202937|    0.823995|    0.011992|
|         641|   -5.987224|   -8.205218|    0.823995|    0.011992|
|         642|   -5.987617|   -8.207514|    0.823995|    0.011992|
|         643|   -5.988115|   -8.209815|    0.823995|    0.011991|
|         644|   -5.988732|   -8.212114|    0.823995|    0.011991|
|         645|   -5.989505|   -8.214411|    0.823995|    0.011991|
|         646|   -5.990495|   -8.216709|    0.823995|    0.011991|
|         647|   -5.991765|   -8.219016|    0.823996|    0.011991|
|         648|   -5.993379|   -8.221344|    0.823996|    0.011991|
|         649|   -5.995382|   -8.223707|    0.823996|    0.011991|
|         650|   -5.997799|   -8.226124|    0.823996|    0.011991|
|         651|   -6.000635|   -8.228615|    0.823996|    0.011991|
|         652|   -6.003879|   -8.231201|    0.823996|    0.011991|
|         653|   -6.007508|   -8.233901|    0.823997|    0.011991|
|         654|   -6.011496|   -8.236737|    0.823997|    0.011991|
|         655|   -6.015821|   -8.239727|    0.823997|    0.011991|
|         656|   -6.020466|   -8.242888|    0.823997|    0.011990|
|         657|   -6.025419|   -8.246234|    0.823998|    0.011990|
|         658|   -6.030675|   -8.249775|    0.823998|    0.011991|
|         659|   -6.036233|   -8.253518|    0.823998|    0.011991|
|         660|   -6.042091|   -8.257466|    0.823999|    0.011991|
|         661|   -6.048244|   -8.261618|    0.823999|    0.011991|
|         662|   -6.054683|   -8.265970|    0.823999|    0.011991|
|         663|   -6.061391|   -8.270511|    0.824000|    0.011991|
|         664|   -6.068348|   -8.275229|    0.824000|    0.011991|
|         665|   -6.075526|   -8.280109|    0.824000|    0.011991|
|         666|   -6.082892|   -8.285130|    0.824001|    0.011991|
|         667|   -6.090410|   -8.290271|    0.824001|    0.011991|
|         668|   -6.098038|   -8.295506|    0.824002|    0.011991|
|         669|   -6.105733|   -8.300809|    0.824002|    0.011991|
|         670|   -6.113446|   -8.306157|    0.824002|    0.011991|
|         671|   -6.121127|   -8.311528|    0.824003|    0.011992|
|         672|   -6.128721|   -8.316902|    0.824003|    0.011992|
|         673|   -6.136172|   -8.322258|    0.824003|    0.011992|
|         674|   -6.143419|   -8.327582|    0.824003|    0.011992|
|         675|   -6.150402|   -8.332860|    0.824004|    0.011992|
|         676|   -6.157062|   -8.338081|    0.824004|    0.011992|
|         677|   -6.163340|   -8.343239|    0.824004|    0.011992|
|         678|   -6.169181|   -8.348330|    0.824004|    0.011993|
|         679|   -6.174535|   -8.353355|    0.824005|    0.011993|
|         680|   -6.179361|   -8.358316|    0.824005|    0.011993|
|         681|   -6.183626|   -8.363219|    0.824005|    0.011993|
|         682|   -6.187308|   -8.368074|    0.824005|    0.011993|
|         683|   -6.190397|   -8.372888|    0.824005|    0.011994|
|         684|   -6.192895|   -8.377674|    0.824005|    0.011994|
|         685|   -6.194815|   -8.382445|    0.824005|    0.011994|
|         686|   -6.196186|   -8.387211|    0.824005|    0.011994|
|         687|   -6.197043|   -8.391985|    0.824005|    0.011994|
|         688|   -6.197435|   -8.396778|    0.824005|    0.011994|
|         689|   -6.197417|   -8.401598|    0.824005|    0.011995|
|         690|   -6.197051|   -8.406453|    0.824005|    0.011995|
|         691|   -6.196405|   -8.411349|    0.824005|    0.011995|
|         692|   -6.195545|   -8.416287|    0.824005|    0.011995|
|         693|   -6.194543|   -8.421269|    0.824005|    0.011995|
|         694|   -6.193467|   -8.426293|    0.824005|    0.011995|
|         695|   -6.192384|   -8.431355|    0.824005|    0.011996|
|         696|   -6.191358|   -8.436448|    0.824005|    0.011996|
|         697|   -6.190450|   -8.441566|    0.824005|    0.011996|
|         698|   -6.189714|   -8.446698|    0.824005|    0.011996|
|         699|   -6.189201|   -8.451835|    0.824004|    0.011996|
|         700|   -6.188958|   -8.456965|    0.824004|    0.011996|
|         701|   -6.189025|   -8.462078|    0.824004|    0.011996|
+-----------------------------------------------------------------------+
|Fixed CL Mode                           |Value                         |
+-----------------------------------------------------------------------+
|Current CL                              |0.824004                      |
|Target CL                               |0.824                         |
|Previous AOA                            |2.76569                       |
|Changed AoA by                          |-2.1032e-05                   |
+-----------------------------------------------------------------------+
+----------------------------------------------------------------+
|  Inner_Iter|    rms[Rho]|     rms[nu]|          CL|          CD|
+----------------------------------------------------------------+
|         702|   -4.870220|   -8.447630|    0.824004|    0.011996|
|         703|   -5.254077|   -8.462264|    0.824004|    0.011996|
|         704|   -5.496885|   -8.469824|    0.824003|    0.011996|
|         705|   -5.574112|   -8.476075|    0.824003|    0.011997|
|         706|   -5.625007|   -8.481929|    0.824003|    0.011997|
|         707|   -5.689765|   -8.487559|    0.824003|    0.011997|
|         708|   -5.767508|   -8.492970|    0.824003|    0.011997|
|         709|   -5.844578|   -8.498145|    0.824002|    0.011997|
|         710|   -5.906025|   -8.503064|    0.824002|    0.011997|
|         711|   -5.947107|   -8.507716|    0.824002|    0.011997|
|         712|   -5.972098|   -8.512106|    0.824002|    0.011997|
|         713|   -5.985945|   -8.516276|    0.824001|    0.011997|
|         714|   -5.992400|   -8.520286|    0.824001|    0.011997|
|         715|   -5.995702|   -8.524187|    0.824001|    0.011997|
|         716|   -6.000184|   -8.528008|    0.824001|    0.011997|
|         717|   -6.008625|   -8.531763|    0.824001|    0.011997|
|         718|   -6.021457|   -8.535458|    0.824000|    0.011997|
|         719|   -6.037168|   -8.539103|    0.824000|    0.011997|
|         720|   -6.053437|   -8.542707|    0.824000|    0.011997|
|         721|   -6.068436|   -8.546273|    0.824000|    0.011997|
|         722|   -6.081622|   -8.549798|    0.823999|    0.011997|
|         723|   -6.093573|   -8.553266|    0.823999|    0.011997|
|         724|   -6.105214|   -8.556660|    0.823999|    0.011997|
|         725|   -6.117138|   -8.559965|    0.823999|    0.011996|
|         726|   -6.129401|   -8.563164|    0.823999|    0.011996|
|         727|   -6.141671|   -8.566244|    0.823998|    0.011996|
|         728|   -6.153482|   -8.569196|    0.823998|    0.011996|
|         729|   -6.164400|   -8.572013|    0.823998|    0.011996|
|         730|   -6.174105|   -8.574691|    0.823998|    0.011996|
|         731|   -6.182438|   -8.577230|    0.823998|    0.011996|
|         732|   -6.189449|   -8.579636|    0.823998|    0.011996|
|         733|   -6.195417|   -8.581914|    0.823997|    0.011996|
|         734|   -6.200794|   -8.584074|    0.823997|    0.011995|
|         735|   -6.206095|   -8.586129|    0.823997|    0.011995|
|         736|   -6.211768|   -8.588094|    0.823997|    0.011995|
|         737|   -6.218097|   -8.589987|    0.823997|    0.011995|
|         738|   -6.225156|   -8.591824|    0.823997|    0.011995|
|         739|   -6.232806|   -8.593627|    0.823997|    0.011995|
|         740|   -6.240731|   -8.595415|    0.823997|    0.011995|
|         741|   -6.248505|   -8.597210|    0.823997|    0.011995|
|         742|   -6.255685|   -8.599034|    0.823996|    0.011994|
|         743|   -6.261927|   -8.600910|    0.823996|    0.011994|
|         744|   -6.267072|   -8.602859|    0.823996|    0.011994|
|         745|   -6.271187|   -8.604902|    0.823996|    0.011994|
|         746|   -6.274530|   -8.607059|    0.823996|    0.011994|
|         747|   -6.277471|   -8.609347|    0.823996|    0.011994|
|         748|   -6.280380|   -8.611781|    0.823996|    0.011994|
|         749|   -6.283546|   -8.614376|    0.823996|    0.011993|
|         750|   -6.287126|   -8.617139|    0.823996|    0.011993|
|         751|   -6.291142|   -8.620080|    0.823996|    0.011993|
|         752|   -6.295504|   -8.623205|    0.823996|    0.011993|
|         753|   -6.300052|   -8.626517|    0.823996|    0.011993|
|         754|   -6.304609|   -8.630020|    0.823996|    0.011993|
|         755|   -6.309019|   -8.633712|    0.823996|    0.011993|
|         756|   -6.313179|   -8.637601|    0.823996|    0.011992|
|         757|   -6.317051|   -8.641685|    0.823996|    0.011992|
|         758|   -6.320651|   -8.645968|    0.823996|    0.011992|
|         759|   -6.324034|   -8.650452|    0.823996|    0.011992|
|         760|   -6.327273|   -8.655135|    0.823996|    0.011992|
|         761|   -6.330433|   -8.660023|    0.823995|    0.011992|
|         762|   -6.333562|   -8.665120|    0.823995|    0.011992|
|         763|   -6.336684|   -8.670433|    0.823995|    0.011992|
|         764|   -6.339801|   -8.675969|    0.823995|    0.011992|
|         765|   -6.342897|   -8.681735|    0.823995|    0.011992|
|         766|   -6.345945|   -8.687738|    0.823995|    0.011992|
|         767|   -6.348915|   -8.693983|    0.823995|    0.011992|
|         768|   -6.351779|   -8.700477|    0.823995|    0.011992|
|         769|   -6.354511|   -8.707221|    0.823995|    0.011992|
|         770|   -6.357087|   -8.714214|    0.823995|    0.011992|
|         771|   -6.359490|   -8.721452|    0.823995|    0.011992|
|         772|   -6.361700|   -8.728928|    0.823995|    0.011992|
|         773|   -6.363700|   -8.736624|    0.823995|    0.011992|
|         774|   -6.365472|   -8.744520|    0.823995|    0.011992|
|         775|   -6.367001|   -8.752592|    0.823995|    0.011992|
|         776|   -6.368269|   -8.760808|    0.823995|    0.011992|
|         777|   -6.369266|   -8.769132|    0.823995|    0.011992|
|         778|   -6.369980|   -8.777526|    0.823995|    0.011992|
|         779|   -6.370408|   -8.785946|    0.823995|    0.011992|
|         780|   -6.370548|   -8.794350|    0.823995|    0.011992|
|         781|   -6.370405|   -8.802692|    0.823995|    0.011992|
|         782|   -6.369988|   -8.810932|    0.823995|    0.011992|
|         783|   -6.369310|   -8.819031|    0.823995|    0.011992|
|         784|   -6.368390|   -8.826956|    0.823995|    0.011992|
|         785|   -6.367247|   -8.834681|    0.823995|    0.011992|
|         786|   -6.365905|   -8.842186|    0.823996|    0.011992|
|         787|   -6.364393|   -8.849457|    0.823996|    0.011992|
|         788|   -6.362738|   -8.856487|    0.823996|    0.011992|
|         789|   -6.360971|   -8.863274|    0.823996|    0.011992|
|         790|   -6.359124|   -8.869820|    0.823996|    0.011993|
|         791|   -6.357230|   -8.876128|    0.823996|    0.011993|
|         792|   -6.355319|   -8.882201|    0.823996|    0.011993|
|         793|   -6.353424|   -8.888038|    0.823996|    0.011993|
|         794|   -6.351576|   -8.893636|    0.823997|    0.011993|
|         795|   -6.349804|   -8.898985|    0.823997|    0.011993|
|         796|   -6.348135|   -8.904071|    0.823997|    0.011993|
|         797|   -6.346595|   -8.908869|    0.823997|    0.011993|
|         798|   -6.345205|   -8.913352|    0.823997|    0.011994|
|         799|   -6.343987|   -8.917486|    0.823997|    0.011994|
|         800|   -6.342956|   -8.921235|    0.823997|    0.011994|
|         801|   -6.342127|   -8.924560|    0.823998|    0.011994|
+-----------------------------------------------------------------------+
|Fixed CL Mode                           |Value                         |
+-----------------------------------------------------------------------+
|Current CL                              |0.823998                      |
|Target CL                               |0.824                         |
|Previous AOA                            |2.76567                       |
|Changed AoA by                          |1.29452e-05                   |
+-----------------------------------------------------------------------+
+----------------------------------------------------------------+
|  Inner_Iter|    rms[Rho]|     rms[nu]|          CL|          CD|
+----------------------------------------------------------------+
|         802|   -5.080593|   -8.867574|    0.823998|    0.011994|
|         803|   -5.461909|   -8.898077|    0.823998|    0.011994|
|         804|   -5.697952|   -8.909141|    0.823998|    0.011995|
|         805|   -5.771481|   -8.915549|    0.823998|    0.011995|
|         806|   -5.820572|   -8.919759|    0.823998|    0.011995|
|         807|   -5.882983|   -8.922460|    0.823998|    0.011995|
|         808|   -5.957172|   -8.924017|    0.823998|    0.011995|
|         809|   -6.029929|   -8.924717|    0.823998|    0.011995|
|         810|   -6.087692|   -8.924774|    0.823998|    0.011995|
|         811|   -6.126639|   -8.924315|    0.823998|    0.011995|
|         812|   -6.150793|   -8.923440|    0.823998|    0.011995|
|         813|   -6.164522|   -8.922276|    0.823998|    0.011996|
|         814|   -6.171067|   -8.920964|    0.823998|    0.011996|
|         815|   -6.174107|   -8.919617|    0.823998|    0.011996|
|         816|   -6.177460|   -8.918302|    0.823998|    0.011996|
|         817|   -6.183612|   -8.917066|    0.823998|    0.011996|
|         818|   -6.192991|   -8.915961|    0.823998|    0.011996|
|         819|   -6.204373|   -8.915053|    0.823998|    0.011996|
|         820|   -6.215929|   -8.914422|    0.823998|    0.011996|
|         821|   -6.226316|   -8.914135|    0.823998|    0.011996|
|         822|   -6.235218|   -8.914236|    0.823998|    0.011996|
|         823|   -6.243105|   -8.914752|    0.823998|    0.011996|
|         824|   -6.250595|   -8.915688|    0.823998|    0.011996|
|         825|   -6.257980|   -8.917043|    0.823998|    0.011996|
|         826|   -6.265143|   -8.918811|    0.823998|    0.011996|
|         827|   -6.271732|   -8.920982|    0.823998|    0.011996|
|         828|   -6.277380|   -8.923537|    0.823998|    0.011996|
|         829|   -6.281839|   -8.926453|    0.823998|    0.011996|
|         830|   -6.285012|   -8.929690|    0.823997|    0.011996|
|         831|   -6.286951|   -8.933219|    0.823997|    0.011996|
|         832|   -6.287841|   -8.936983|    0.823997|    0.011996|
|         833|   -6.287976|   -8.940910|    0.823997|    0.011996|
|         834|   -6.287701|   -8.944922|    0.823997|    0.011996|
|         835|   -6.287346|   -8.948932|    0.823997|    0.011996|
|         836|   -6.287154|   -8.952838|    0.823997|    0.011996|
|         837|   -6.287253|   -8.956532|    0.823996|    0.011996|
|         838|   -6.287648|   -8.959899|    0.823996|    0.011996|
|         839|   -6.288242|   -8.962823|    0.823996|    0.011996|
|         840|   -6.288874|   -8.965190|    0.823996|    0.011996|
|         841|   -6.289363|   -8.966902|    0.823996|    0.011996|
|         842|   -6.289553|   -8.967871|    0.823996|    0.011996|
|         843|   -6.289362|   -8.968031|    0.823996|    0.011996|
|         844|   -6.288794|   -8.967340|    0.823995|    0.011996|
|         845|   -6.287947|   -8.965787|    0.823995|    0.011996|
|         846|   -6.286978|   -8.963389|    0.823995|    0.011996|
|         847|   -6.286072|   -8.960190|    0.823995|    0.011996|
|         848|   -6.285393|   -8.956260|    0.823995|    0.011996|
|         849|   -6.285063|   -8.951693|    0.823995|    0.011995|
|         850|   -6.285145|   -8.946587|    0.823995|    0.011995|
|         851|   -6.285645|   -8.941080|    0.823995|    0.011995|
|         852|   -6.286529|   -8.935298|    0.823995|    0.011995|
|         853|   -6.287741|   -8.929373|    0.823995|    0.011995|
|         854|   -6.289220|   -8.923434|    0.823995|    0.011995|
|         855|   -6.290918|   -8.917610|    0.823995|    0.011995|
|         856|   -6.292804|   -8.912016|    0.823995|    0.011995|
|         857|   -6.294869|   -8.906764|    0.823995|    0.011995|
|         858|   -6.297121|   -8.901953|    0.823995|    0.011995|
|         859|   -6.299575|   -8.897672|    0.823995|    0.011995|
|         860|   -6.302252|   -8.894000|    0.823995|    0.011995|
|         861|   -6.305164|   -8.891003|    0.823995|    0.011994|
|         862|   -6.308315|   -8.888739|    0.823995|    0.011994|
|         863|   -6.311698|   -8.887252|    0.823995|    0.011994|
|         864|   -6.315296|   -8.886579|    0.823995|    0.011994|
|         865|   -6.319083|   -8.886745|    0.823996|    0.011994|
|         866|   -6.323025|   -8.887765|    0.823996|    0.011994|
|         867|   -6.327085|   -8.889643|    0.823996|    0.011994|
|         868|   -6.331225|   -8.892374|    0.823996|    0.011994|
|         869|   -6.335403|   -8.895940|    0.823996|    0.011994|
|         870|   -6.339576|   -8.900311|    0.823996|    0.011994|
|         871|   -6.343701|   -8.905447|    0.823997|    0.011994|
|         872|   -6.347733|   -8.911293|    0.823997|    0.011994|
|         873|   -6.351627|   -8.917780|    0.823997|    0.011994|
|         874|   -6.355336|   -8.924827|    0.823997|    0.011994|
|         875|   -6.358814|   -8.932337|    0.823997|    0.011994|
|         876|   -6.362017|   -8.940204|    0.823997|    0.011993|
|         877|   -6.364903|   -8.948309|    0.823998|    0.011993|
|         878|   -6.367435|   -8.956524|    0.823998|    0.011993|
|         879|   -6.369582|   -8.964717|    0.823998|    0.011993|
|         880|   -6.371317|   -8.972758|    0.823998|    0.011993|
|         881|   -6.372624|   -8.980521|    0.823998|    0.011993|
|         882|   -6.373492|   -8.987892|    0.823998|    0.011993|
|         883|   -6.373920|   -8.994774|    0.823999|    0.011993|
|         884|   -6.373916|   -9.001094|    0.823999|    0.011993|
|         885|   -6.373495|   -9.006807|    0.823999|    0.011993|
|         886|   -6.372680|   -9.011897|    0.823999|    0.011993|
|         887|   -6.371501|   -9.016377|    0.823999|    0.011993|
|         888|   -6.369992|   -9.020287|    0.823999|    0.011993|
|         889|   -6.368194|   -9.023688|    0.823999|    0.011993|
|         890|   -6.366150|   -9.026660|    0.823999|    0.011993|
|         891|   -6.363905|   -9.029292|    0.823999|    0.011993|
|         892|   -6.361505|   -9.031676|    0.823999|    0.011993|
|         893|   -6.358996|   -9.033901|    0.824000|    0.011993|
|         894|   -6.356423|   -9.036050|    0.824000|    0.011993|
|         895|   -6.353830|   -9.038192|    0.824000|    0.011993|
|         896|   -6.351258|   -9.040382|    0.824000|    0.011993|
|         897|   -6.348745|   -9.042658|    0.824000|    0.011993|
|         898|   -6.346327|   -9.045042|    0.824000|    0.011993|
|         899|   -6.344037|   -9.047538|    0.824000|    0.011993|
|         900|   -6.341904|   -9.050132|    0.824000|    0.011993|
|         901|   -6.339955|   -9.052797|    0.824000|    0.011993|
|         902|   -6.338213|   -9.055494|    0.824000|    0.011994|
|         903|   -6.336698|   -9.058172|    0.824000|    0.011994|
|         904|   -6.335430|   -9.060776|    0.824000|    0.011994|
|         905|   -6.334424|   -9.063244|    0.824000|    0.011994|
|         906|   -6.333693|   -9.065517|    0.824000|    0.011994|
|         907|   -6.333249|   -9.067538|    0.824000|    0.011994|
[...]
|        5298|   -6.047555|   -7.930148|    0.824239|    0.011999|
|        5299|   -6.054265|   -7.934015|    0.824239|    0.011999|
|        5300|   -6.060541|   -7.937928|    0.824240|    0.011999|
|        5301|   -6.066350|   -7.941894|    0.824240|    0.011998|
|        5302|   -6.071673|   -7.945920|    0.824240|    0.011998|
|        5303|   -6.076500|   -7.950007|    0.824240|    0.011998|
|        5304|   -6.080839|   -7.954154|    0.824240|    0.011998|
|        5305|   -6.084705|   -7.958360|    0.824240|    0.011998|
|        5306|   -6.088129|   -7.962622|    0.824240|    0.011998|
|        5307|   -6.091150|   -7.966936|    0.824240|    0.011998|
|        5308|   -6.093815|   -7.971297|    0.824240|    0.011998|
|        5309|   -6.096178|   -7.975700|    0.824240|    0.011998|
|        5310|   -6.098297|   -7.980142|    0.824240|    0.011998|
|        5311|   -6.100232|   -7.984619|    0.824241|    0.011998|
|        5312|   -6.102043|   -7.989132|    0.824241|    0.011998|
|        5313|   -6.103790|   -7.993679|    0.824241|    0.011998|
|        5314|   -6.105529|   -7.998261|    0.824241|    0.011998|
|        5315|   -6.107313|   -8.002881|    0.824241|    0.011998|
|        5316|   -6.109188|   -8.007541|    0.824241|    0.011998|
|        5317|   -6.111198|   -8.012246|    0.824241|    0.011998|
|        5318|   -6.113378|   -8.017002|    0.824241|    0.011998|
|        5319|   -6.115755|   -8.021813|    0.824242|    0.011998|
|        5320|   -6.118354|   -8.026686|    0.824242|    0.011998|
|        5321|   -6.121191|   -8.031625|    0.824242|    0.011998|
|        5322|   -6.124277|   -8.036637|    0.824242|    0.011998|
|        5323|   -6.127613|   -8.041726|    0.824242|    0.011998|
|        5324|   -6.131196|   -8.046896|    0.824242|    0.011999|
|        5325|   -6.135015|   -8.052149|    0.824243|    0.011999|
|        5326|   -6.139053|   -8.057487|    0.824243|    0.011999|
|        5327|   -6.143287|   -8.062911|    0.824243|    0.011999|
|        5328|   -6.147689|   -8.068417|    0.824243|    0.011999|
|        5329|   -6.152225|   -8.074005|    0.824243|    0.011999|
|        5330|   -6.156857|   -8.079668|    0.824243|    0.011999|
|        5331|   -6.161543|   -8.085403|    0.824244|    0.011999|
|        5332|   -6.166240|   -8.091202|    0.824244|    0.011999|
|        5333|   -6.170902|   -8.097058|    0.824244|    0.011999|
|        5334|   -6.175483|   -8.102964|    0.824244|    0.011999|
|        5335|   -6.179938|   -8.108912|    0.824244|    0.011999|
|        5336|   -6.184226|   -8.114895|    0.824244|    0.012000|
|        5337|   -6.188309|   -8.120905|    0.824244|    0.012000|
|        5338|   -6.192156|   -8.126937|    0.824245|    0.012000|
|        5339|   -6.195739|   -8.132986|    0.824245|    0.012000|
|        5340|   -6.199044|   -8.139047|    0.824245|    0.012000|
|        5341|   -6.202060|   -8.145116|    0.824245|    0.012000|
|        5342|   -6.204787|   -8.151193|    0.824245|    0.012000|
|        5343|   -6.207234|   -8.157276|    0.824245|    0.012000|
|        5344|   -6.209418|   -8.163365|    0.824245|    0.012000|
|        5345|   -6.211364|   -8.169463|    0.824246|    0.012000|
|        5346|   -6.213103|   -8.175570|    0.824246|    0.012000|
|        5347|   -6.214673|   -8.181689|    0.824246|    0.012000|
|        5348|   -6.216115|   -8.187823|    0.824246|    0.012000|
|        5349|   -6.217474|   -8.193975|    0.824246|    0.012000|
|        5350|   -6.218795|   -8.200149|    0.824246|    0.012001|
|        5351|   -6.220125|   -8.206348|    0.824246|    0.012001|
|        5352|   -6.221508|   -8.212574|    0.824246|    0.012001|
|        5353|   -6.222989|   -8.218831|    0.824247|    0.012001|
|        5354|   -6.224609|   -8.225119|    0.824247|    0.012001|
|        5355|   -6.226404|   -8.231442|    0.824247|    0.012001|
|        5356|   -6.228409|   -8.237799|    0.824247|    0.012001|
|        5357|   -6.230652|   -8.244191|    0.824247|    0.012001|
|        5358|   -6.233159|   -8.250616|    0.824247|    0.012001|
|        5359|   -6.235950|   -8.257072|    0.824247|    0.012001|
|        5360|   -6.239040|   -8.263558|    0.824247|    0.012001|
|        5361|   -6.242439|   -8.270070|    0.824247|    0.012001|
|        5362|   -6.246152|   -8.276603|    0.824247|    0.012001|
|        5363|   -6.250180|   -8.283152|    0.824247|    0.012001|
|        5364|   -6.254518|   -8.289712|    0.824247|    0.012001|
|        5365|   -6.259156|   -8.296281|    0.824247|    0.012001|
|        5366|   -6.264080|   -8.302851|    0.824247|    0.012001|
|        5367|   -6.269268|   -8.309416|    0.824247|    0.012001|
|        5368|   -6.274698|   -8.315969|    0.824247|    0.012001|
|        5369|   -6.280339|   -8.322504|    0.824247|    0.012001|
|        5370|   -6.286157|   -8.329013|    0.824247|    0.012001|
|        5371|   -6.292115|   -8.335490|    0.824247|    0.012001|
|        5372|   -6.298170|   -8.341931|    0.824247|    0.012001|
|        5373|   -6.304278|   -8.348331|    0.824247|    0.012001|
|        5374|   -6.310391|   -8.354687|    0.824247|    0.012001|
|        5375|   -6.316460|   -8.360996|    0.824247|    0.012001|
|        5376|   -6.322435|   -8.367258|    0.824247|    0.012001|
|        5377|   -6.328266|   -8.373474|    0.824247|    0.012001|
|        5378|   -6.333907|   -8.379646|    0.824247|    0.012000|
|        5379|   -6.339311|   -8.385776|    0.824247|    0.012000|
|        5380|   -6.344437|   -8.391870|    0.824247|    0.012000|
|        5381|   -6.349252|   -8.397935|    0.824247|    0.012000|
|        5382|   -6.353724|   -8.403977|    0.824247|    0.012000|
|        5383|   -6.357830|   -8.410004|    0.824247|    0.012000|
|        5384|   -6.361555|   -8.416022|    0.824247|    0.012000|
|        5385|   -6.364889|   -8.422041|    0.824247|    0.012000|
|        5386|   -6.367833|   -8.428068|    0.824247|    0.012000|
|        5387|   -6.370392|   -8.434110|    0.824248|    0.012000|
|        5388|   -6.372579|   -8.440173|    0.824248|    0.012000|
|        5389|   -6.374411|   -8.446264|    0.824248|    0.012000|
|        5390|   -6.375910|   -8.452386|    0.824248|    0.012000|
|        5391|   -6.377102|   -8.458541|    0.824248|    0.011999|
|        5392|   -6.378014|   -8.464728|    0.824248|    0.011999|
|        5393|   -6.378673|   -8.470943|    0.824248|    0.011999|
|        5394|   -6.379108|   -8.477182|    0.824248|    0.011999|
|        5395|   -6.379345|   -8.483436|    0.824248|    0.011999|
|        5396|   -6.379409|   -8.489693|    0.824248|    0.011999|
|        5397|   -6.379324|   -8.495939|    0.824249|    0.011999|
|        5398|   -6.379110|   -8.502157|    0.824249|    0.011999|
|        5399|   -6.378785|   -8.508331|    0.824249|    0.011999|
|        5400|   -6.378364|   -8.514438|    0.824249|    0.011999|
|        5401|   -6.377860|   -8.520458|    0.824249|    0.011998|
|        5402|   -6.377284|   -8.526369|    0.824249|    0.011998|
|        5403|   -6.376643|   -8.532150|    0.824249|    0.011998|
|        5404|   -6.375945|   -8.537779|    0.824250|    0.011998|
|        5405|   -6.375194|   -8.543236|    0.824250|    0.011998|
|        5406|   -6.374394|   -8.548503|    0.824250|    0.011998|
|        5407|   -6.373548|   -8.553566|    0.824250|    0.011998|
|        5408|   -6.372659|   -8.558410|    0.824250|    0.011998|
|        5409|   -6.371728|   -8.563027|    0.824250|    0.011998|
|        5410|   -6.370758|   -8.567410|    0.824251|    0.011998|
|        5411|   -6.369752|   -8.571556|    0.824251|    0.011998|
|        5412|   -6.368711|   -8.575465|    0.824251|    0.011997|
|        5413|   -6.367639|   -8.579139|    0.824251|    0.011997|
|        5414|   -6.366540|   -8.582585|    0.824251|    0.011997|
|        5415|   -6.365417|   -8.585810|    0.824252|    0.011997|
|        5416|   -6.364275|   -8.588822|    0.824252|    0.011997|
|        5417|   -6.363119|   -8.591631|    0.824252|    0.011997|
|        5418|   -6.361956|   -8.594246|    0.824252|    0.011997|
|        5419|   -6.360792|   -8.596678|    0.824252|    0.011997|
|        5420|   -6.359635|   -8.598935|    0.824252|    0.011997|
|        5421|   -6.358494|   -8.601027|    0.824252|    0.011997|
|        5422|   -6.357376|   -8.602960|    0.824253|    0.011997|
|        5423|   -6.356292|   -8.604739|    0.824253|    0.011997|
|        5424|   -6.355252|   -8.606372|    0.824253|    0.011997|
|        5425|   -6.354268|   -8.607860|    0.824253|    0.011997|
|        5426|   -6.353352|   -8.609209|    0.824253|    0.011997|
|        5427|   -6.352517|   -8.610419|    0.824253|    0.011997|
|        5428|   -6.351776|   -8.611495|    0.824253|    0.011997|
|        5429|   -6.351143|   -8.612440|    0.824253|    0.011997|
|        5430|   -6.350633|   -8.613259|    0.824254|    0.011997|
|        5431|   -6.350262|   -8.613957|    0.824254|    0.011997|
|        5432|   -6.350044|   -8.614541|    0.824254|    0.011997|
|        5433|   -6.349996|   -8.615019|    0.824254|    0.011997|
|        5434|   -6.350132|   -8.615400|    0.824254|    0.011997|
|        5435|   -6.350468|   -8.615696|    0.824254|    0.011997|
|        5436|   -6.351018|   -8.615918|    0.824254|    0.011997|
|        5437|   -6.351797|   -8.616081|    0.824254|    0.011997|
|        5438|   -6.352818|   -8.616201|    0.824254|    0.011997|
|        5439|   -6.354092|   -8.616293|    0.824254|    0.011997|
|        5440|   -6.355631|   -8.616375|    0.824254|    0.011997|
|        5441|   -6.357443|   -8.616464|    0.824254|    0.011997|
|        5442|   -6.359535|   -8.616577|    0.824254|    0.011997|
|        5443|   -6.361913|   -8.616731|    0.824255|    0.011997|
|        5444|   -6.364579|   -8.616942|    0.824255|    0.011997|
|        5445|   -6.367533|   -8.617224|    0.824255|    0.011997|
|        5446|   -6.370772|   -8.617591|    0.824255|    0.011997|
|        5447|   -6.374292|   -8.618056|    0.824255|    0.011997|
|        5448|   -6.378083|   -8.618627|    0.824255|    0.011997|
|        5449|   -6.382134|   -8.619315|    0.824255|    0.011997|
|        5450|   -6.386430|   -8.620126|    0.824255|    0.011997|
|        5451|   -6.390950|   -8.621065|    0.824255|    0.011997|
|        5452|   -6.395674|   -8.622136|    0.824255|    0.011997|
|        5453|   -6.400574|   -8.623341|    0.824255|    0.011998|
|        5454|   -6.405621|   -8.624680|    0.824255|    0.011998|
|        5455|   -6.410783|   -8.626154|    0.824255|    0.011998|
|        5456|   -6.416022|   -8.627759|    0.824255|    0.011998|
|        5457|   -6.421299|   -8.629495|    0.824255|    0.011998|
|        5458|   -6.426572|   -8.631357|    0.824255|    0.011998|
|        5459|   -6.431798|   -8.633340|    0.824255|    0.011998|
|        5460|   -6.436930|   -8.635441|    0.824255|    0.011998|
|        5461|   -6.441924|   -8.637655|    0.824255|    0.011998|
|        5462|   -6.446734|   -8.639976|    0.824255|    0.011998|
|        5463|   -6.451314|   -8.642400|    0.824255|    0.011998|
|        5464|   -6.455625|   -8.644922|    0.824255|    0.011998|
|        5465|   -6.459626|   -8.647536|    0.824254|    0.011999|
|        5466|   -6.463283|   -8.650239|    0.824254|    0.011999|
|        5467|   -6.466569|   -8.653026|    0.824254|    0.011999|
|        5468|   -6.469459|   -8.655893|    0.824254|    0.011999|
|        5469|   -6.471939|   -8.658835|    0.824254|    0.011999|
|        5470|   -6.474000|   -8.661850|    0.824254|    0.011999|
|        5471|   -6.475641|   -8.664934|    0.824254|    0.011999|
|        5472|   -6.476868|   -8.668084|    0.824254|    0.011999|
|        5473|   -6.477693|   -8.671295|    0.824254|    0.011999|
|        5474|   -6.478136|   -8.674565|    0.824254|    0.011999|
|        5475|   -6.478222|   -8.677890|    0.824254|    0.011999|
|        5476|   -6.477982|   -8.681266|    0.824253|    0.011999|
|        5477|   -6.477448|   -8.684689|    0.824253|    0.011999|
|        5478|   -6.476657|   -8.688156|    0.824253|    0.011999|
|        5479|   -6.475648|   -8.691661|    0.824253|    0.011999|
|        5480|   -6.474459|   -8.695202|    0.824253|    0.012000|
|        5481|   -6.473129|   -8.698772|    0.824253|    0.012000|
|        5482|   -6.471697|   -8.702366|    0.824253|    0.012000|
|        5483|   -6.470201|   -8.705981|    0.824253|    0.012000|
|        5484|   -6.468676|   -8.709611|    0.824253|    0.012000|
|        5485|   -6.467156|   -8.713251|    0.824252|    0.012000|
|        5486|   -6.465672|   -8.716897|    0.824252|    0.012000|
|        5487|   -6.464251|   -8.720547|    0.824252|    0.012000|
|        5488|   -6.462920|   -8.724196|    0.824252|    0.012000|
|        5489|   -6.461700|   -8.727841|    0.824252|    0.012000|
|        5490|   -6.460613|   -8.731480|    0.824252|    0.012000|
|        5491|   -6.459675|   -8.735109|    0.824252|    0.012000|
|        5492|   -6.458902|   -8.738726|    0.824252|    0.012000|
|        5493|   -6.458306|   -8.742329|    0.824252|    0.012000|
|        5494|   -6.457897|   -8.745919|    0.824251|    0.012000|
|        5495|   -6.457684|   -8.749497|    0.824251|    0.012000|
|        5496|   -6.457674|   -8.753064|    0.824251|    0.012000|
|        5497|   -6.457870|   -8.756625|    0.824251|    0.012000|
|        5498|   -6.458276|   -8.760183|    0.824251|    0.012000|
|        5499|   -6.458895|   -8.763743|    0.824251|    0.011985|
+-----------------------------------------------------------------------+
|Fixed CL Mode (Finite Difference)       |Value                         |
+-----------------------------------------------------------------------+
|Delta CL / Delta AoA                    |0.25088                       |
|Delta CD / Delta CL                     |0.0205539                     |
|Delta CMz / Delta CL                    |0.014904                      |
+-----------------------------------------------------------------------+
Writing Flow Meta-Data file: flow.meta

----------------------------- Solver Exit -------------------------------

Maximum number of iterations reached (ITER = 5500) before convergence.
+-----------------------------------------------------------------------+
|      Convergence Field     |     Value    |   Criterion  |  Converged |
+-----------------------------------------------------------------------+
|                    rms[Rho]|      -6.45889|         < -12|          No|
+-----------------------------------------------------------------------+
-------------------------------------------------------------------------

--------------------------- Finalizing Solver ---------------------------
Deleted CNumerics container.
Deleted CIntegration container.
Deleted CSolver container.
Deleted CIteration container.
Deleted CInterface container.
Deleted CGeometry container.
Deleted CFreeFormDefBox class.
Deleted CSurfaceMovement class.
Deleted CVolumetricMovement class.
Deleted CConfig container.
Deleted nInst container.
Deleted COutput class.
-------------------------------------------------------------------------

------------------------- Exit Success (SU2_CFD) ------------------------


-------------------------------------------------------------------------
|    ___ _   _ ___                                                      |
|   / __| | | |_  )   Release 8.0.0 "Harrier"                           |
|   \__ \ |_| |/ /                                                      |
|   |___/\___//___|   Suite (Solution Exporting Code)                   |
|                                                                       |
-------------------------------------------------------------------------
| SU2 Project Website: https://su2code.github.io                        |
|                                                                       |
| The SU2 Project is maintained by the SU2 Foundation                   |
| (http://su2foundation.org)                                            |
-------------------------------------------------------------------------
| Copyright 2012-2023, SU2 Contributors                                 |
|                                                                       |
| SU2 is free software; you can redistribute it and/or                  |
| modify it under the terms of the GNU Lesser General Public            |
| License as published by the Free Software Foundation; either          |
| version 2.1 of the License, or (at your option) any later version.    |
|                                                                       |
| SU2 is distributed in the hope that it will be useful,                |
| but WITHOUT ANY WARRANTY; without even the implied warranty of        |
| MERCHANTABILITY or FITNESS FOR A PARTICULAR PURPOSE. See the GNU      |
| Lesser General Public License for more details.                       |
|                                                                       |
| You should have received a copy of the GNU Lesser General Public      |
| License along with SU2. If not, see <http://www.gnu.org/licenses/>.   |
-------------------------------------------------------------------------

----------------- Physical Case Definition ( Zone 0 ) -------------------
Input mesh file name: mesh_RAE2822_turb_deform.su2

-------------------- Output Information ( Zone 0 ) ----------------------
The tabular file format is CSV (.csv).
Flow variables file name: flow.

------------- Config File Boundary Information ( Zone 0 ) ---------------
+-----------------------------------------------------------------------+
|                        Marker Type|                        Marker Name|
+-----------------------------------------------------------------------+
|                          Far-field|                           FARFIELD|
+-----------------------------------------------------------------------+
|                     Heat flux wall|                            AIRFOIL|
+-----------------------------------------------------------------------+
Two dimensional problem.
13937 grid points before partitioning.
22842 volume elements before partitioning.
2 surface markers.
192 boundary elements in index 0 (Marker = AIRFOIL).
40 boundary elements in index 1 (Marker = FARFIELD).
Executing the partitioning functions.
Building the graph adjacency structure.
Calling ParMETIS... graph partitioning complete (831 edge cuts).
Distributing ParMETIS coloring.
Rebalancing vertices.
Rebalancing volume element connectivity.
Rebalancing markers and surface elements.
14875 vertices including ghost points. 
23674 interior elements including halo cells. 
18780 triangles.
4894 quadrilaterals.
Establishing MPI communication patterns.
Identify vertices.
Storing a mapping from global to local point index.

------------------------- Solution Postprocessing -----------------------
Reading and storing the solution from restart_flow.
Volume output fields: COORDINATES, SOLUTION
  Info: Ignoring the following screen output fields:
  RMS_DENSITY, RMS_NU_TILDE, LIFT, DRAG
Screen output fields: INNER_ITER
  Info: Ignoring the following history output groups:
  RMS_RES, AERO_COEFF
History output group(s): ITER
Warning: No (valid) fields chosen for convergence monitoring. Convergence monitoring inactive.
Warning: No (valid) fields chosen for time convergence monitoring. Time convergence monitoring inactive.
|Paraview                           |flow.vtu                           |
|Paraview surface                   |surface_flow.vtu                   |
|CSV file                           |surface_flow.csv                   |

------------------------- Finalize Solver -------------------------
Deleted CGeometry container.
Deleted CSolver class.
Deleted CConfig container.
Deleted COutput class.

Completed in 0.015319 seconds on 6 cores.

------------------------- Exit Success (SU2_SOL) ------------------------

