
-------------------------------------------------------------------------
|    ___ _   _ ___                                                      |
|   / __| | | |_  )   Release 8.0.0 "Harrier"                           |
|   \__ \ |_| |/ /                                                      |
|   |___/\___//___|   Suite (Computational Fluid Dynamics Code)         |
|                                                                       |
-------------------------------------------------------------------------
| SU2 Project Website: https://su2code.github.io                        |
|                                                                       |
| The SU2 Project is maintained by the SU2 Foundation                   |
| (http://su2foundation.org)                                            |
-------------------------------------------------------------------------
| Copyright 2012-2023, SU2 Contributors                                 |
|                                                                       |
| SU2 is free software; you can redistribute it and/or                  |
| modify it under the terms of the GNU Lesser General Public            |
| License as published by the Free Software Foundation; either          |
| version 2.1 of the License, or (at your option) any later version.    |
|                                                                       |
| SU2 is distributed in the hope that it will be useful,                |
| but WITHOUT ANY WARRANTY; without even the implied warranty of        |
| MERCHANTABILITY or FITNESS FOR A PARTICULAR PURPOSE. See the GNU      |
| Lesser General Public License for more details.                       |
|                                                                       |
| You should have received a copy of the GNU Lesser General Public      |
| License along with SU2. If not, see <http://www.gnu.org/licenses/>.   |
-------------------------------------------------------------------------

Parsing config file for zone 0

----------------- Physical Case Definition ( Zone 0 ) -------------------
Compressible RANS equations.
Turbulence model: Spalart-Allmaras-noft2
Hybrid RANS/LES: No Hybrid RANS/LES
Mach number: 0.734.
Angle of attack (AoA): 2.31 deg, and angle of sideslip (AoS): 0 deg.
Reynolds number: 6.5e+06. Reference length 1.
Fixed CL mode, target value: 0.824.
Reading and writing binary SU2 native restart files.
Read flow solution from: solution_flow.dat.
Dimensional simulation.
The reference area is 1 m^2.
The semi-span will be computed using the max y(3D) value.
The reference length is 1 m.
Reference origin for moment evaluation is (0.25, 0, 0).
Surface(s) where the force coefficients are evaluated: AIRFOIL.

Surface(s) plotted in the output file: AIRFOIL.
Surface(s) affected by the design variables: AIRFOIL.
Input mesh file name: mesh_RAE2822_turb_deform.su2

--------------- Space Numerical Integration ( Zone 0 ) ------------------
Jameson-Schmidt-Turkel scheme (2nd order in space) for the flow inviscid terms.
JST viscous coefficients (2nd & 4th): 0.5, 0.02.
The method includes a grid stretching correction (p = 0.3).
Scalar upwind solver for the turbulence model.
First order integration in space.
Average of gradients with correction (viscous flow terms).
Average of gradients with correction (viscous turbulence terms).
Gradient for viscous and source terms: inverse-distance weighted Least-Squares.

--------------- Time Numerical Integration  ( Zone 0 ) ------------------
Local time stepping (steady state simulation).
Euler implicit method for the flow equations.
FGMRES is used for solving the linear system.
Using a ILU(0) preconditioning.
Convergence criteria of the linear solver: 1e-06.
Max number of linear iterations: 10.
No CFL adaptation.
Courant-Friedrichs-Lewy number:       10
Euler implicit time integration for the turbulence model.

------------------ Convergence Criteria  ( Zone 0 ) ---------------------
Maximum number of solver subiterations: 5500.
Begin convergence monitoring at iteration 10.
Residual minimum value: 1e-12.
Cauchy series min. value: 1e-06.
Number of Cauchy elements: 100.
Begin windowed time average at iteration 0.

-------------------- Output Information ( Zone 0 ) ----------------------
File writing frequency: 
+------------------------------------+
|                     File| Frequency|
+------------------------------------+
|                  RESTART|     10000|
|                 PARAVIEW|     10000|
|         SURFACE_PARAVIEW|     10000|
|              SURFACE_CSV|     10000|
+------------------------------------+
Writing the convergence history file every 1 inner iterations.
Writing the screen convergence history every 1 inner iterations.
The tabular file format is CSV (.csv).
Convergence history file name: history_direct.
Forces breakdown file name: forces_breakdown.dat.
Surface file name: surface_flow.
Volume file name: flow.
Restart file name: restart_flow.dat.

------------- Config File Boundary Information ( Zone 0 ) ---------------
+-----------------------------------------------------------------------+
|                        Marker Type|                        Marker Name|
+-----------------------------------------------------------------------+
|                          Far-field|                           FARFIELD|
+-----------------------------------------------------------------------+
|                     Heat flux wall|                            AIRFOIL|
+-----------------------------------------------------------------------+

-------------------- Output Preprocessing ( Zone 0 ) --------------------

WARNING: SURFACE_PRESSURE_DROP can only be computed for at least 2 surfaces (outlet, inlet, ...)

Screen output fields: INNER_ITER, RMS_DENSITY, RMS_NU_TILDE, LIFT, DRAG
History output group(s): ITER, RMS_RES, AERO_COEFF
Convergence field(s): RMS_DENSITY
Warning: No (valid) fields chosen for time convergence monitoring. Time convergence monitoring inactive.
Volume output fields: COORDINATES, SOLUTION, PRIMITIVE

------------------- Geometry Preprocessing ( Zone 0 ) -------------------
Two dimensional problem.
13937 grid points before partitioning.
22842 volume elements before partitioning.
2 surface markers.
192 boundary elements in index 0 (Marker = AIRFOIL).
40 boundary elements in index 1 (Marker = FARFIELD).
Executing the partitioning functions.
Building the graph adjacency structure.
Calling ParMETIS... graph partitioning complete (831 edge cuts).
Distributing ParMETIS coloring.
Rebalancing vertices.
Rebalancing volume element connectivity.
Rebalancing markers and surface elements.
14875 vertices including ghost points. 
23674 interior elements including halo cells. 
18780 triangles.
4894 quadrilaterals.
Establishing MPI communication patterns.
Setting point connectivity.
Renumbering points (Reverse Cuthill McKee Ordering).
Recomputing point connectivity.
Setting element connectivity.
Checking the numerical grid orientation.
All volume elements are correctly orientend.
All surface elements are correctly orientend.
Identifying edges and vertices.
Setting the control volume structure.
Area of the computational grid: 32209.9.
Searching for the closest normal neighbors to the surfaces.
Storing a mapping from global to local point index.
Compute the surface curvature.
Max K: 209.292. Mean K: 8.40003. Standard deviation K: 27.4379.
Checking for periodicity.
Computing mesh quality statistics for the dual control volumes.
+--------------------------------------------------------------+
|           Mesh Quality Metric|        Minimum|        Maximum|
+--------------------------------------------------------------+
|    Orthogonality Angle (deg.)|        74.4284|        89.9998|
|     CV Face Area Aspect Ratio|        1.00105|        3359.08|
|           CV Sub-Volume Ratio|        1.00066|        1220.07|
+--------------------------------------------------------------+
Finding max control volume width.
Communicating number of neighbors.
Wetted area = 2.0213 m.
Area projection in the x-plane = 0.128137 m, y-plane = 0.995873 m.
Max. coordinate in the x-direction = 1 m, y-direction = 0.0614941 m.
Min. coordinate in the x-direction = 0 m, y-direction = -0.062717 m.
Computing wall distances.

-------------------- Solver Preprocessing ( Zone 0 ) --------------------
WARNING: AoA in the solution file (2.76535 deg.) +
         AoA offset in mesh file (0 deg.) = 2.76535 deg.
WARNING: SU2 will use the dCD/dCL provided in the direct solution file: 0.0207879.
WARNING: SU2 will use the dCMz/dCL provided in the direct solution file: 0.0177917.
Viscous flow: Computing pressure using the ideal gas law
based on the free-stream temperature and a density computed
from the Reynolds number.
Force coefficients computed using free-stream values.

-- Models:
+------------------------------------------------------------------------------+
|          Viscosity Model|        Conductivity Model|              Fluid Model|
+------------------------------------------------------------------------------+
|               SUTHERLAND|          CONSTANT_PRANDTL|             STANDARD_AIR|
+------------------------------------------------------------------------------+
-- Fluid properties:
+------------------------------------------------------------------------------+
|                  Name|    Dim. value|    Ref. value|      Unit|Non-dim. value|
+------------------------------------------------------------------------------+
|        Ref. Viscosity|     1.716e-05|             1|   N.s/m^2|     1.716e-05|
|      Sutherland Temp.|        273.15|             1|         K|        273.15|
|     Sutherland Const.|         110.4|             1|         K|         110.4|
+------------------------------------------------------------------------------+
|        Prandtl (Lam.)|             -|             -|         -|          0.71|
|       Prandtl (Turb.)|             -|             -|         -|           0.9|
+------------------------------------------------------------------------------+
|          Gas Constant|       287.058|             1|  N.m/kg.K|       287.058|
|      Spec. Heat Ratio|             -|             -|         -|           1.4|
+------------------------------------------------------------------------------+
-- Initial and free-stream conditions:
+------------------------------------------------------------------------------+
|                  Name|    Dim. value|    Ref. value|      Unit|Non-dim. value|
+------------------------------------------------------------------------------+
|       Static Pressure|         38515|             1|        Pa|         38515|
|               Density|      0.465631|             1|    kg/m^3|      0.465631|
|           Temperature|        288.15|             1|         K|        288.15|
|          Total Energy|        237984|             1|   m^2/s^2|        237984|
|            Velocity-X|       249.487|             1|       m/s|       249.487|
|            Velocity-Y|       12.0507|             1|       m/s|       12.0507|
|    Velocity Magnitude|       249.778|             1|       m/s|       249.778|
+------------------------------------------------------------------------------+
|             Viscosity|    1.7893e-05|             1|   N.s/m^2|    1.7893e-05|
|          Conductivity|             -|             1|   W/m^2.K|             -|
|     Turb. Kin. Energy|       233.959|             1|   m^2/s^2|       233.959|
|     Spec. Dissipation|        608834|             1|       1/s|        608834|
+------------------------------------------------------------------------------+
|           Mach Number|             -|             -|         -|         0.734|
|       Reynolds Number|             -|             -|         -|       6.5e+06|
+------------------------------------------------------------------------------+
Initialize Jacobian structure (Navier-Stokes). MG level: 0.
Initialize Jacobian structure (SA model).

------------------- Numerics Preprocessing ( Zone 0 ) -------------------

----------------- Integration Preprocessing ( Zone 0 ) ------------------

------------------- Iteration Preprocessing ( Zone 0 ) ------------------
Euler/Navier-Stokes/RANS fluid iteration.

------------------------------ Begin Solver -----------------------------

Simulation Run using the Single-zone Driver
WARNING: SU2 was not compiled for an AVX-capable architecture. Performance could be better,
         see https://su2code.github.io/docs_v7/Build-SU2-Linux-MacOS/#compiler-optimizations
+----------------------------------------------------------------+
|  Inner_Iter|    rms[Rho]|     rms[nu]|          CL|          CD|
+----------------------------------------------------------------+
|           0|   -5.592936|   -6.929837|    0.824017|    0.012001|
|           1|   -5.650608|   -7.028102|    0.824025|    0.012005|
|           2|   -5.712073|   -7.150268|    0.824027|    0.012007|
|           3|   -5.756171|   -7.295827|    0.824025|    0.012008|
|           4|   -5.782927|   -7.456172|    0.824022|    0.012008|
|           5|   -5.796871|   -7.590142|    0.824019|    0.012008|
|           6|   -5.802062|   -7.633931|    0.824018|    0.012008|
|           7|   -5.802091|   -7.609978|    0.824018|    0.012008|
|           8|   -5.799692|   -7.578488|    0.824019|    0.012009|
|           9|   -5.796190|   -7.555692|    0.824020|    0.012009|
|          10|   -5.791656|   -7.535010|    0.824022|    0.012010|
|          11|   -5.785607|   -7.509225|    0.824025|    0.012011|
|          12|   -5.777681|   -7.478930|    0.824027|    0.012012|
|          13|   -5.767954|   -7.450175|    0.824030|    0.012014|
|          14|   -5.756909|   -7.428620|    0.824032|    0.012015|
|          15|   -5.745254|   -7.416895|    0.824034|    0.012016|
|          16|   -5.733752|   -7.414763|    0.824036|    0.012017|
|          17|   -5.723123|   -7.419873|    0.824037|    0.012018|
|          18|   -5.713990|   -7.428370|    0.824038|    0.012019|
|          19|   -5.706837|   -7.435665|    0.824037|    0.012020|
|          20|   -5.701967|   -7.437808|    0.824036|    0.012021|
|          21|   -5.699464|   -7.433162|    0.824034|    0.012022|
|          22|   -5.699176|   -7.423103|    0.824032|    0.012022|
|          23|   -5.700735|   -7.411058|    0.824028|    0.012022|
|          24|   -5.703612|   -7.400797|    0.824025|    0.012023|
|          25|   -5.707207|   -7.395258|    0.824020|    0.012023|
|          26|   -5.710944|   -7.396195|    0.824015|    0.012023|
|          27|   -5.714364|   -7.404254|    0.824010|    0.012022|
|          28|   -5.717160|   -7.419147|    0.824005|    0.012022|
|          29|   -5.719174|   -7.439741|    0.824000|    0.012021|
|          30|   -5.720353|   -7.464097|    0.823995|    0.012021|
|          31|   -5.720688|   -7.489571|    0.823990|    0.012020|
|          32|   -5.720180|   -7.513144|    0.823985|    0.012019|
|          33|   -5.718837|   -7.532116|    0.823980|    0.012018|
|          34|   -5.716691|   -7.544955|    0.823975|    0.012017|
|          35|   -5.713825|   -7.551791|    0.823971|    0.012015|
|          36|   -5.710387|   -7.554150|    0.823967|    0.012014|
|          37|   -5.706574|   -7.554169|    0.823964|    0.012013|
|          38|   -5.702608|   -7.553849|    0.823960|    0.012011|
|          39|   -5.698694|   -7.554661|    0.823957|    0.012010|
|          40|   -5.694991|   -7.557477|    0.823955|    0.012008|
|          41|   -5.691591|   -7.562667|    0.823952|    0.012007|
|          42|   -5.688517|   -7.570209|    0.823950|    0.012005|
|          43|   -5.685730|   -7.579785|    0.823948|    0.012003|
|          44|   -5.683148|   -7.590831|    0.823946|    0.012002|
|          45|   -5.680659|   -7.602562|    0.823945|    0.012001|
|          46|   -5.678144|   -7.614019|    0.823944|    0.011999|
|          47|   -5.675484|   -7.624159|    0.823943|    0.011998|
|          48|   -5.672576|   -7.632017|    0.823942|    0.011997|
|          49|   -5.669335|   -7.636917|    0.823942|    0.011996|
|          50|   -5.665699|   -7.638661|    0.823942|    0.011995|
|          51|   -5.661634|   -7.637596|    0.823942|    0.011994|
|          52|   -5.657129|   -7.634522|    0.823943|    0.011993|
|          53|   -5.652201|   -7.630490|    0.823944|    0.011992|
|          54|   -5.646889|   -7.626565|    0.823945|    0.011991|
|          55|   -5.641247|   -7.623650|    0.823947|    0.011991|
|          56|   -5.635345|   -7.622387|    0.823948|    0.011990|
|          57|   -5.629254|   -7.623126|    0.823950|    0.011989|
|          58|   -5.623043|   -7.625941|    0.823953|    0.011989|
|          59|   -5.616775|   -7.630672|    0.823955|    0.011988|
|          60|   -5.610499|   -7.636981|    0.823958|    0.011987|
|          61|   -5.604251|   -7.644411|    0.823961|    0.011987|
|          62|   -5.598052|   -7.652460|    0.823964|    0.011986|
|          63|   -5.591918|   -7.660646|    0.823967|    0.011986|
|          64|   -5.585854|   -7.668564|    0.823970|    0.011986|
|          65|   -5.579867|   -7.675920|    0.823973|    0.011985|
|          66|   -5.573967|   -7.682531|    0.823976|    0.011985|
|          67|   -5.568168|   -7.688310|    0.823979|    0.011985|
|          68|   -5.562492|   -7.693224|    0.823982|    0.011984|
|          69|   -5.556965|   -7.697259|    0.823985|    0.011984|
|          70|   -5.551615|   -7.700394|    0.823987|    0.011984|
|          71|   -5.546472|   -7.702596|    0.823990|    0.011984|
|          72|   -5.541561|   -7.703831|    0.823992|    0.011984|
|          73|   -5.536900|   -7.704079|    0.823994|    0.011984|
|          74|   -5.532498|   -7.703352|    0.823995|    0.011984|
|          75|   -5.528355|   -7.701699|    0.823997|    0.011984|
|          76|   -5.524461|   -7.699204|    0.823998|    0.011984|
|          77|   -5.520798|   -7.695971|    0.823999|    0.011984|
|          78|   -5.517342|   -7.692115|    0.824000|    0.011984|
|          79|   -5.514065|   -7.687746|    0.824000|    0.011984|
|          80|   -5.510941|   -7.682973|    0.824001|    0.011984|
|          81|   -5.507947|   -7.677899|    0.824001|    0.011984|
|          82|   -5.505066|   -7.672638|    0.824001|    0.011984|
|          83|   -5.502290|   -7.667312|    0.824001|    0.011984|
|          84|   -5.499619|   -7.662063|    0.824001|    0.011984|
|          85|   -5.497065|   -7.657046|    0.824002|    0.011984|
|          86|   -5.494650|   -7.652423|    0.824002|    0.011985|
|          87|   -5.492402|   -7.648351|    0.824002|    0.011985|
|          88|   -5.490356|   -7.644972|    0.824002|    0.011985|
|          89|   -5.488552|   -7.642399|    0.824002|    0.011985|
|          90|   -5.487029|   -7.640707|    0.824002|    0.011985|
|          91|   -5.485825|   -7.639933|    0.824002|    0.011986|
|          92|   -5.484976|   -7.640071|    0.824002|    0.011986|
|          93|   -5.484511|   -7.641077|    0.824002|    0.011986|
|          94|   -5.484452|   -7.642873|    0.824003|    0.011987|
|          95|   -5.484812|   -7.645358|    0.824003|    0.011987|
|          96|   -5.485593|   -7.648411|    0.824003|    0.011987|
|          97|   -5.486789|   -7.651907|    0.824004|    0.011988|
|          98|   -5.488382|   -7.655718|    0.824004|    0.011988|
|          99|   -5.490341|   -7.659726|    0.824005|    0.011989|
|         100|   -5.492625|   -7.663827|    0.824005|    0.011989|
|         101|   -5.495182|   -7.667932|    0.824006|    0.011990|
+-----------------------------------------------------------------------+
|Fixed CL Mode                           |Value                         |
+-----------------------------------------------------------------------+
|Current CL                              |0.824006                      |
|Target CL                               |0.824                         |
|Previous AOA                            |2.76535                       |
|Changed AoA by                          |-2.73834e-05                  |
+-----------------------------------------------------------------------+
+----------------------------------------------------------------+
|  Inner_Iter|    rms[Rho]|     rms[nu]|          CL|          CD|
+----------------------------------------------------------------+
|         102|   -4.747692|   -7.670929|    0.824007|    0.011990|
|         103|   -5.090712|   -7.675339|    0.824007|    0.011991|
|         104|   -5.258711|   -7.679290|    0.824008|    0.011991|
|         105|   -5.308150|   -7.683032|    0.824008|    0.011992|
|         106|   -5.345660|   -7.686602|    0.824009|    0.011993|
|         107|   -5.388572|   -7.690025|    0.824009|    0.011993|
|         108|   -5.431999|   -7.693329|    0.824010|    0.011994|
|         109|   -5.467618|   -7.696552|    0.824010|    0.011994|
|         110|   -5.491092|   -7.699730|    0.824010|    0.011995|
|         111|   -5.503772|   -7.702901|    0.824011|    0.011995|
|         112|   -5.509028|   -7.706104|    0.824011|    0.011996|
|         113|   -5.509486|   -7.709375|    0.824011|    0.011997|
|         114|   -5.506983|   -7.712751|    0.824011|    0.011997|
|         115|   -5.503112|   -7.716263|    0.824011|    0.011997|
|         116|   -5.499196|   -7.719942|    0.824010|    0.011998|
|         117|   -5.496014|   -7.723815|    0.824010|    0.011998|
|         118|   -5.493705|   -7.727907|    0.824010|    0.011999|
|         119|   -5.491967|   -7.732240|    0.824009|    0.011999|
|         120|   -5.490377|   -7.736840|    0.824009|    0.011999|
|         121|   -5.488656|   -7.741730|    0.824008|    0.012000|
|         122|   -5.486760|   -7.746936|    0.824007|    0.012000|
|         123|   -5.484826|   -7.752487|    0.824007|    0.012000|
|         124|   -5.483051|   -7.758414|    0.824006|    0.012000|
|         125|   -5.481611|   -7.764750|    0.824006|    0.012000|
|         126|   -5.480619|   -7.771532|    0.824005|    0.012000|
|         127|   -5.480133|   -7.778791|    0.824004|    0.012000|
|         128|   -5.480155|   -7.786559|    0.824004|    0.012000|
|         129|   -5.480642|   -7.794866|    0.824003|    0.012001|
|         130|   -5.481508|   -7.803731|    0.824003|    0.012001|
|         131|   -5.482634|   -7.813156|    0.824002|    0.012001|
|         132|   -5.483884|   -7.823130|    0.824002|    0.012001|
|         133|   -5.485124|   -7.833626|    0.824001|    0.012001|
|         134|   -5.486233|   -7.844600|    0.824001|    0.012001|
|         135|   -5.487111|   -7.855988|    0.824001|    0.012001|
|         136|   -5.487677|   -7.867711|    0.824001|    0.012001|
|         137|   -5.487873|   -7.879667|    0.824000|    0.012001|
|         138|   -5.487654|   -7.891741|    0.824000|    0.012001|
|         139|   -5.486991|   -7.903801|    0.824000|    0.012001|
|         140|   -5.485865|   -7.915710|    0.824000|    0.012001|
|         141|   -5.484272|   -7.927324|    0.824000|    0.012001|
|         142|   -5.482222|   -7.938501|    0.824000|    0.012001|
|         143|   -5.479740|   -7.949111|    0.823999|    0.012001|
|         144|   -5.476866|   -7.959038|    0.823999|    0.012000|
|         145|   -5.473654|   -7.968194|    0.823999|    0.012000|
|         146|   -5.470166|   -7.976515|    0.823999|    0.012000|
|         147|   -5.466467|   -7.983968|    0.823999|    0.012000|
|         148|   -5.462620|   -7.990548|    0.823998|    0.012000|
|         149|   -5.458681|   -7.996273|    0.823998|    0.012000|
|         150|   -5.454696|   -8.001179|    0.823998|    0.012000|
|         151|   -5.450705|   -8.005315|    0.823997|    0.012000|
|         152|   -5.446737|   -8.008731|    0.823997|    0.012000|
|         153|   -5.442817|   -8.011467|    0.823997|    0.012000|
|         154|   -5.438968|   -8.013567|    0.823996|    0.012000|
|         155|   -5.435208|   -8.015068|    0.823996|    0.011999|
|         156|   -5.431557|   -8.015991|    0.823995|    0.011999|
|         157|   -5.428032|   -8.016350|    0.823995|    0.011999|
|         158|   -5.424651|   -8.016160|    0.823994|    0.011999|
|         159|   -5.421430|   -8.015433|    0.823993|    0.011999|
|         160|   -5.418385|   -8.014179|    0.823993|    0.011998|
|         161|   -5.415529|   -8.012429|    0.823992|    0.011998|
|         162|   -5.412871|   -8.010226|    0.823992|    0.011998|
|         163|   -5.410419|   -8.007620|    0.823991|    0.011998|
|         164|   -5.408178|   -8.004673|    0.823991|    0.011997|
|         165|   -5.406148|   -8.001458|    0.823990|    0.011997|
|         166|   -5.404329|   -7.998060|    0.823990|    0.011997|
|         167|   -5.402715|   -7.994571|    0.823989|    0.011997|
|         168|   -5.401301|   -7.991086|    0.823989|    0.011996|
|         169|   -5.400076|   -7.987705|    0.823988|    0.011996|
|         170|   -5.399030|   -7.984524|    0.823988|    0.011996|
|         171|   -5.398149|   -7.981633|    0.823988|    0.011996|
|         172|   -5.397419|   -7.979113|    0.823988|    0.011995|
|         173|   -5.396827|   -7.977033|    0.823987|    0.011995|
|         174|   -5.396359|   -7.975449|    0.823987|    0.011995|
|         175|   -5.396004|   -7.974403|    0.823987|    0.011995|
|         176|   -5.395752|   -7.973923|    0.823987|    0.011995|
|         177|   -5.395597|   -7.974016|    0.823987|    0.011994|
|         178|   -5.395534|   -7.974679|    0.823988|    0.011994|
|         179|   -5.395564|   -7.975899|    0.823988|    0.011994|
|         180|   -5.395690|   -7.977648|    0.823988|    0.011994|
|         181|   -5.395919|   -7.979889|    0.823988|    0.011994|
|         182|   -5.396260|   -7.982571|    0.823989|    0.011993|
|         183|   -5.396724|   -7.985638|    0.823989|    0.011993|
|         184|   -5.397324|   -7.989026|    0.823989|    0.011993|
|         185|   -5.398071|   -7.992666|    0.823990|    0.011993|
|         186|   -5.398976|   -7.996487|    0.823990|    0.011993|
|         187|   -5.400047|   -8.000420|    0.823991|    0.011993|
|         188|   -5.401289|   -8.004397|    0.823991|    0.011993|
|         189|   -5.402702|   -8.008358|    0.823992|    0.011993|
|         190|   -5.404279|   -8.012247|    0.823992|    0.011992|
|         191|   -5.406009|   -8.016020|    0.823993|    0.011992|
|         192|   -5.407872|   -8.019642|    0.823993|    0.011992|
|         193|   -5.409842|   -8.023091|    0.823994|    0.011992|
|         194|   -5.411887|   -8.026355|    0.823994|    0.011992|
|         195|   -5.413968|   -8.029434|    0.823995|    0.011992|
|         196|   -5.416041|   -8.032337|    0.823995|    0.011992|
|         197|   -5.418059|   -8.035082|    0.823996|    0.011992|
|         198|   -5.419975|   -8.037695|    0.823996|    0.011992|
|         199|   -5.421741|   -8.040203|    0.823997|    0.011992|
|         200|   -5.423313|   -8.042639|    0.823997|    0.011992|
|         201|   -5.424657|   -8.045034|    0.823998|    0.011992|
+-----------------------------------------------------------------------+
|Fixed CL Mode                           |Value                         |
+-----------------------------------------------------------------------+
|Current CL                              |0.823998                      |
|Target CL                               |0.824                         |
|Previous AOA                            |2.76532                       |
|Changed AoA by                          |1.33596e-05                   |
+-----------------------------------------------------------------------+
+----------------------------------------------------------------+
|  Inner_Iter|    rms[Rho]|     rms[nu]|          CL|          CD|
+----------------------------------------------------------------+
|         202|   -5.028235|   -8.046407|    0.823998|    0.011992|
|         203|   -5.288076|   -8.049598|    0.823999|    0.011992|
|         204|   -5.376339|   -8.052328|    0.823999|    0.011992|
|         205|   -5.394213|   -8.054952|    0.824000|    0.011992|
|         206|   -5.401538|   -8.057542|    0.824000|    0.011992|
|         207|   -5.407355|   -8.060135|    0.824001|    0.011992|
|         208|   -5.412059|   -8.062753|    0.824001|    0.011992|
|         209|   -5.415166|   -8.065408|    0.824001|    0.011992|
|         210|   -5.416848|   -8.068099|    0.824002|    0.011992|
|         211|   -5.417728|   -8.070811|    0.824002|    0.011992|
|         212|   -5.418320|   -8.073522|    0.824003|    0.011992|
|         213|   -5.418895|   -8.076197|    0.824003|    0.011992|
|         214|   -5.419616|   -8.078799|    0.824003|    0.011992|
|         215|   -5.420656|   -8.081289|    0.824004|    0.011992|
|         216|   -5.422194|   -8.083631|    0.824004|    0.011992|
|         217|   -5.424366|   -8.085793|    0.824004|    0.011992|
|         218|   -5.427237|   -8.087755|    0.824004|    0.011992|
|         219|   -5.430816|   -8.089501|    0.824005|    0.011993|
|         220|   -5.435096|   -8.091028|    0.824005|    0.011993|
|         221|   -5.440082|   -8.092339|    0.824005|    0.011993|
|         222|   -5.445805|   -8.093448|    0.824005|    0.011993|
|         223|   -5.452305|   -8.094378|    0.824005|    0.011993|
|         224|   -5.459613|   -8.095161|    0.824006|    0.011993|
|         225|   -5.467740|   -8.095836|    0.824006|    0.011994|
|         226|   -5.476671|   -8.096453|    0.824006|    0.011994|
|         227|   -5.486373|   -8.097062|    0.824006|    0.011994|
|         228|   -5.496797|   -8.097723|    0.824006|    0.011994|
|         229|   -5.507881|   -8.098493|    0.824006|    0.011994|
|         230|   -5.519549|   -8.099434|    0.824006|    0.011995|
|         231|   -5.531714|   -8.100604|    0.824006|    0.011995|
|         232|   -5.544275|   -8.102059|    0.824006|    0.011995|
|         233|   -5.557120|   -8.103851|    0.824006|    0.011995|
|         234|   -5.570122|   -8.106027|    0.824006|    0.011995|
|         235|   -5.583143|   -8.108626|    0.824006|    0.011996|
|         236|   -5.596032|   -8.111686|    0.824006|    0.011996|
|         237|   -5.608624|   -8.115235|    0.824006|    0.011996|
|         238|   -5.620748|   -8.119296|    0.824006|    0.011996|
|         239|   -5.632229|   -8.123886|    0.824006|    0.011996|
|         240|   -5.642899|   -8.129015|    0.824006|    0.011997|
|         241|   -5.652607|   -8.134687|    0.824006|    0.011997|
|         242|   -5.661231|   -8.140900|    0.824006|    0.011997|
|         243|   -5.668686|   -8.147646|    0.824006|    0.011997|
|         244|   -5.674936|   -8.154910|    0.824006|    0.011997|
|         245|   -5.679992|   -8.162671|    0.824006|    0.011997|
|         246|   -5.683910|   -8.170904|    0.824006|    0.011998|
|         247|   -5.686786|   -8.179576|    0.824006|    0.011998|
|         248|   -5.688741|   -8.188654|    0.824006|    0.011998|
|         249|   -5.689917|   -8.198095|    0.824006|    0.011998|
|         250|   -5.690457|   -8.207856|    0.824006|    0.011998|
|         251|   -5.690507|   -8.217889|    0.824006|    0.011998|
|         252|   -5.690205|   -8.228143|    0.824006|    0.011998|
|         253|   -5.689677|   -8.238566|    0.824006|    0.011999|
|         254|   -5.689041|   -8.249108|    0.824006|    0.011999|
|         255|   -5.688400|   -8.259718|    0.824006|    0.011999|
|         256|   -5.687846|   -8.270346|    0.824006|    0.011999|
|         257|   -5.687459|   -8.280946|    0.824006|    0.011999|
|         258|   -5.687306|   -8.291475|    0.824006|    0.011999|
|         259|   -5.687445|   -8.301890|    0.824006|    0.011999|
|         260|   -5.687921|   -8.312154|    0.824006|    0.011999|
|         261|   -5.688774|   -8.322228|    0.824006|    0.011999|
|         262|   -5.690030|   -8.332074|    0.824006|    0.011999|
|         263|   -5.691712|   -8.341653|    0.824006|    0.011999|
|         264|   -5.693834|   -8.350923|    0.824006|    0.011999|
|         265|   -5.696406|   -8.359836|    0.824006|    0.011999|
|         266|   -5.699435|   -8.368339|    0.824006|    0.011999|
|         267|   -5.702921|   -8.376373|    0.824006|    0.011999|
|         268|   -5.706864|   -8.383873|    0.824006|    0.011999|
|         269|   -5.711260|   -8.390771|    0.824006|    0.011999|
|         270|   -5.716103|   -8.396996|    0.824006|    0.011999|
|         271|   -5.721384|   -8.402476|    0.824005|    0.011999|
|         272|   -5.727094|   -8.407151|    0.824005|    0.011999|
|         273|   -5.733221|   -8.410969|    0.824005|    0.011999|
|         274|   -5.739748|   -8.413898|    0.824005|    0.011999|
|         275|   -5.746658|   -8.415926|    0.824005|    0.011999|
|         276|   -5.753933|   -8.417065|    0.824005|    0.011999|
|         277|   -5.761548|   -8.417353|    0.824004|    0.011999|
|         278|   -5.769478|   -8.416857|    0.824004|    0.011998|
|         279|   -5.777693|   -8.415663|    0.824004|    0.011998|
|         280|   -5.786161|   -8.413881|    0.824004|    0.011998|
|         281|   -5.794844|   -8.411633|    0.824004|    0.011998|
|         282|   -5.803704|   -8.409051|    0.824004|    0.011998|
|         283|   -5.812695|   -8.406271|    0.824003|    0.011998|
|         284|   -5.821771|   -8.403424|    0.824003|    0.011998|
|         285|   -5.830881|   -8.400639|    0.824003|    0.011998|
|         286|   -5.839974|   -8.398033|    0.824003|    0.011997|
|         287|   -5.848993|   -8.395713|    0.824003|    0.011997|
|         288|   -5.857885|   -8.393771|    0.824003|    0.011997|
|         289|   -5.866595|   -8.392288|    0.824003|    0.011997|
|         290|   -5.875070|   -8.391330|    0.824003|    0.011997|
|         291|   -5.883258|   -8.390949|    0.824003|    0.011997|
|         292|   -5.891116|   -8.391185|    0.824003|    0.011997|
|         293|   -5.898601|   -8.392065|    0.824003|    0.011996|
|         294|   -5.905681|   -8.393606|    0.824003|    0.011996|
|         295|   -5.912329|   -8.395813|    0.824003|    0.011996|
|         296|   -5.918525|   -8.398683|    0.824003|    0.011996|
|         297|   -5.924259|   -8.402203|    0.824003|    0.011996|
|         298|   -5.929526|   -8.406354|    0.824003|    0.011996|
|         299|   -5.934330|   -8.411108|    0.824003|    0.011996|
|         300|   -5.938680|   -8.416431|    0.824003|    0.011995|
|         301|   -5.942589|   -8.422285|    0.824003|    0.011995|
+-----------------------------------------------------------------------+
|Fixed CL Mode                           |Value                         |
+-----------------------------------------------------------------------+
|Current CL                              |0.824003                      |
|Target CL                               |0.824                         |
|Previous AOA                            |2.76534                       |
|Changed AoA by                          |-1.57369e-05                  |
+-----------------------------------------------------------------------+
+----------------------------------------------------------------+
|  Inner_Iter|    rms[Rho]|     rms[nu]|          CL|          CD|
+----------------------------------------------------------------+
|         302|   -4.993366|   -8.417949|    0.824003|    0.011995|
|         303|   -5.362170|   -8.429439|    0.824004|    0.011995|
|         304|   -5.571353|   -8.437898|    0.824004|    0.011995|
|         305|   -5.632345|   -8.446097|    0.824004|    0.011995|
|         306|   -5.673315|   -8.454424|    0.824004|    0.011995|
|         307|   -5.722773|   -8.462927|    0.824004|    0.011994|
|         308|   -5.776967|   -8.471573|    0.824005|    0.011994|
|         309|   -5.825115|   -8.480318|    0.824005|    0.011994|
|         310|   -5.859815|   -8.489115|    0.824005|    0.011994|
|         311|   -5.881499|   -8.497908|    0.824005|    0.011994|
|         312|   -5.894154|   -8.506648|    0.824005|    0.011994|
|         313|   -5.900859|   -8.515300|    0.824006|    0.011994|
|         314|   -5.903602|   -8.523836|    0.824006|    0.011994|
|         315|   -5.904294|   -8.532229|    0.824006|    0.011994|
|         316|   -5.904767|   -8.540445|    0.824007|    0.011994|
|         317|   -5.906172|   -8.548454|    0.824007|    0.011994|
|         318|   -5.908697|   -8.556226|    0.824007|    0.011994|
|         319|   -5.911803|   -8.563744|    0.824007|    0.011994|
|         320|   -5.914757|   -8.570997|    0.824008|    0.011994|
|         321|   -5.917094|   -8.577975|    0.824008|    0.011994|
|         322|   -5.918770|   -8.584664|    0.824008|    0.011994|
|         323|   -5.920016|   -8.591044|    0.824009|    0.011994|
|         324|   -5.921102|   -8.597090|    0.824009|    0.011994|
|         325|   -5.922182|   -8.602778|    0.824009|    0.011994|
|         326|   -5.923279|   -8.608085|    0.824010|    0.011994|
|         327|   -5.924350|   -8.612986|    0.824010|    0.011994|
|         328|   -5.925351|   -8.617460|    0.824011|    0.011994|
|         329|   -5.926260|   -8.621484|    0.824011|    0.011994|
|         330|   -5.927081|   -8.625038|    0.824011|    0.011994|
|         331|   -5.927837|   -8.628099|    0.824012|    0.011994|
|         332|   -5.928571|   -8.630647|    0.824012|    0.011994|
|         333|   -5.929349|   -8.632660|    0.824012|    0.011994|
|         334|   -5.930246|   -8.634123|    0.824013|    0.011994|
|         335|   -5.931342|   -8.635021|    0.824013|    0.011994|
|         336|   -5.932702|   -8.635349|    0.824013|    0.011994|
|         337|   -5.934368|   -8.635109|    0.824014|    0.011994|
|         338|   -5.936354|   -8.634310|    0.824014|    0.011994|
|         339|   -5.938649|   -8.632975|    0.824015|    0.011994|
|         340|   -5.941222|   -8.631136|    0.824015|    0.011994|
|         341|   -5.944029|   -8.628835|    0.824015|    0.011994|
|         342|   -5.947032|   -8.626125|    0.824016|    0.011994|
|         343|   -5.950201|   -8.623065|    0.824016|    0.011994|
|         344|   -5.953529|   -8.619722|    0.824016|    0.011994|
|         345|   -5.957030|   -8.616166|    0.824016|    0.011994|
|         346|   -5.960735|   -8.612473|    0.824017|    0.011995|
|         347|   -5.964686|   -8.608714|    0.824017|    0.011995|
|         348|   -5.968921|   -8.604963|    0.824017|    0.011995|
|         349|   -5.973467|   -8.601292|    0.824017|    0.011995|
|         350|   -5.978333|   -8.597766|    0.824017|    0.011995|
|         351|   -5.983509|   -8.594449|    0.824018|    0.011995|
|         352|   -5.988969|   -8.591400|    0.824018|    0.011995|
|         353|   -5.994675|   -8.588673|    0.824018|    0.011995|
|         354|   -6.000587|   -8.586317|    0.824018|    0.011995|
|         355|   -6.006661|   -8.584374|    0.824018|    0.011995|
|         356|   -6.012861|   -8.582881|    0.824018|    0.011995|
|         357|   -6.019155|   -8.581869|    0.824018|    0.011995|
|         358|   -6.025516|   -8.581365|    0.824018|    0.011995|
|         359|   -6.031918|   -8.581383|    0.824018|    0.011995|
|         360|   -6.038334|   -8.581935|    0.824018|    0.011995|
|         361|   -6.044737|   -8.583019|    0.824018|    0.011995|
|         362|   -6.051093|   -8.584626|    0.824017|    0.011995|
|         363|   -6.057360|   -8.586739|    0.824017|    0.011995|
|         364|   -6.063495|   -8.589327|    0.824017|    0.011995|
|         365|   -6.069450|   -8.592349|    0.824017|    0.011995|
|         366|   -6.075174|   -8.595750|    0.824017|    0.011996|
|         367|   -6.080616|   -8.599462|    0.824016|    0.011996|
|         368|   -6.085730|   -8.603402|    0.824016|    0.011996|
|         369|   -6.090471|   -8.607473|    0.824016|    0.011996|
|         370|   -6.094802|   -8.611570|    0.824016|    0.011996|
|         371|   -6.098691|   -8.615569|    0.824015|    0.011996|
|         372|   -6.102115|   -8.619341|    0.824015|    0.011996|
|         373|   -6.105059|   -8.622755|    0.824015|    0.011996|
|         374|   -6.107517|   -8.625678|    0.824014|    0.011996|
|         375|   -6.109494|   -8.627987|    0.824014|    0.011996|
|         376|   -6.111003|   -8.629572|    0.824014|    0.011996|
|         377|   -6.112066|   -8.630345|    0.824013|    0.011996|
|         378|   -6.112717|   -8.630246|    0.824013|    0.011996|
|         379|   -6.112994|   -8.629248|    0.824013|    0.011996|
|         380|   -6.112943|   -8.627356|    0.824013|    0.011996|
|         381|   -6.112616|   -8.624613|    0.824012|    0.011996|
|         382|   -6.112065|   -8.621089|    0.824012|    0.011996|
|         383|   -6.111348|   -8.616884|    0.824012|    0.011996|
|         384|   -6.110520|   -8.612115|    0.824011|    0.011996|
|         385|   -6.109637|   -8.606914|    0.824011|    0.011996|
|         386|   -6.108753|   -8.601417|    0.824011|    0.011996|
|         387|   -6.107916|   -8.595759|    0.824011|    0.011996|
|         388|   -6.107175|   -8.590070|    0.824010|    0.011996|
|         389|   -6.106569|   -8.584471|    0.824010|    0.011996|
|         390|   -6.106137|   -8.579067|    0.824010|    0.011996|
|         391|   -6.105910|   -8.573952|    0.824010|    0.011996|
|         392|   -6.105916|   -8.569202|    0.824010|    0.011996|
|         393|   -6.106176|   -8.564881|    0.824009|    0.011996|
|         394|   -6.106707|   -8.561033|    0.824009|    0.011996|
|         395|   -6.107521|   -8.557694|    0.824009|    0.011996|
|         396|   -6.108625|   -8.554881|    0.824009|    0.011996|
|         397|   -6.110022|   -8.552604|    0.824009|    0.011996|
|         398|   -6.111710|   -8.550857|    0.824009|    0.011996|
|         399|   -6.113685|   -8.549628|    0.824009|    0.011996|
|         400|   -6.115938|   -8.548892|    0.824009|    0.011996|
|         401|   -6.118457|   -8.548621|    0.824009|    0.011995|
+-----------------------------------------------------------------------+
|Fixed CL Mode                           |Value                         |
+-----------------------------------------------------------------------+
|Current CL                              |0.824009                      |
|Target CL                               |0.824                         |
|Previous AOA                            |2.76532                       |
|Changed AoA by                          |-4.2927e-05                   |
+-----------------------------------------------------------------------+
+----------------------------------------------------------------+
|  Inner_Iter|    rms[Rho]|     rms[nu]|          CL|          CD|
+----------------------------------------------------------------+
|         402|   -4.560505|   -8.445548|    0.824008|    0.011995|
|         403|   -4.944026|   -8.492013|    0.824008|    0.011995|
|         404|   -5.185139|   -8.508508|    0.824008|    0.011995|
|         405|   -5.261965|   -8.518525|    0.824008|    0.011995|
|         406|   -5.314372|   -8.526110|    0.824008|    0.011995|
|         407|   -5.382389|   -8.532268|    0.824008|    0.011995|
|         408|   -5.466005|   -8.537385|    0.824008|    0.011995|
|         409|   -5.552566|   -8.541719|    0.824008|    0.011995|
|         410|   -5.626501|   -8.545451|    0.824008|    0.011995|
|         411|   -5.680531|   -8.548645|    0.824009|    0.011995|
|         412|   -5.716581|   -8.551359|    0.824009|    0.011995|
|         413|   -5.738243|   -8.553712|    0.824009|    0.011995|
|         414|   -5.748891|   -8.555876|    0.824009|    0.011995|
|         415|   -5.753713|   -8.557976|    0.824009|    0.011995|
|         416|   -5.758744|   -8.560021|    0.824009|    0.011995|
|         417|   -5.768151|   -8.561977|    0.824009|    0.011995|
|         418|   -5.782996|   -8.563811|    0.824009|    0.011995|
|         419|   -5.801737|   -8.565525|    0.824009|    0.011995|
|         420|   -5.821637|   -8.567154|    0.824009|    0.011995|
|         421|   -5.840437|   -8.568740|    0.824009|    0.011995|
|         422|   -5.857456|   -8.570294|    0.824009|    0.011995|
|         423|   -5.873439|   -8.571804|    0.824010|    0.011995|
|         424|   -5.889526|   -8.573246|    0.824010|    0.011995|
|         425|   -5.906318|   -8.574601|    0.824010|    0.011995|
|         426|   -5.923579|   -8.575869|    0.824010|    0.011994|
|         427|   -5.940488|   -8.577062|    0.824010|    0.011994|
|         428|   -5.956061|   -8.578207|    0.824010|    0.011994|
|         429|   -5.969494|   -8.579337|    0.824010|    0.011994|
|         430|   -5.980341|   -8.580487|    0.824010|    0.011994|
|         431|   -5.988583|   -8.581688|    0.824011|    0.011994|
|         432|   -5.994634|   -8.582967|    0.824011|    0.011994|
|         433|   -5.999266|   -8.584338|    0.824011|    0.011994|
|         434|   -6.003433|   -8.585800|    0.824011|    0.011994|
|         435|   -6.008047|   -8.587343|    0.824011|    0.011994|
|         436|   -6.013789|   -8.588936|    0.824011|    0.011994|
|         437|   -6.020995|   -8.590544|    0.824011|    0.011994|
|         438|   -6.029635|   -8.592121|    0.824012|    0.011994|
|         439|   -6.039334|   -8.593619|    0.824012|    0.011994|
|         440|   -6.049439|   -8.594994|    0.824012|    0.011994|
|         441|   -6.059131|   -8.596200|    0.824012|    0.011994|
|         442|   -6.067593|   -8.597202|    0.824012|    0.011994|
|         443|   -6.074217|   -8.597970|    0.824012|    0.011994|
|         444|   -6.078766|   -8.598482|    0.824012|    0.011994|
|         445|   -6.081438|   -8.598722|    0.824012|    0.011994|
|         446|   -6.082773|   -8.598681|    0.824012|    0.011994|
|         447|   -6.083477|   -8.598356|    0.824012|    0.011995|
|         448|   -6.084212|   -8.597747|    0.824012|    0.011995|
|         449|   -6.085464|   -8.596856|    0.824012|    0.011995|
|         450|   -6.087475|   -8.595693|    0.824012|    0.011995|
|         451|   -6.090254|   -8.594272|    0.824012|    0.011995|
|         452|   -6.093635|   -8.592613|    0.824012|    0.011995|
|         453|   -6.097349|   -8.590744|    0.824012|    0.011995|
|         454|   -6.101114|   -8.588702|    0.824012|    0.011995|
|         455|   -6.104698|   -8.586526|    0.824012|    0.011995|
|         456|   -6.107967|   -8.584279|    0.824012|    0.011995|
|         457|   -6.110898|   -8.582008|    0.824012|    0.011995|
|         458|   -6.113561|   -8.579776|    0.824012|    0.011995|
|         459|   -6.116089|   -8.577647|    0.824012|    0.011995|
|         460|   -6.118636|   -8.575689|    0.824012|    0.011995|
|         461|   -6.121344|   -8.573969|    0.824012|    0.011995|
|         462|   -6.124324|   -8.572556|    0.824012|    0.011995|
|         463|   -6.127649|   -8.571512|    0.824011|    0.011995|
|         464|   -6.131353|   -8.570896|    0.824011|    0.011995|
|         465|   -6.135445|   -8.570764|    0.824011|    0.011995|
|         466|   -6.139918|   -8.571160|    0.824011|    0.011995|
|         467|   -6.144760|   -8.572122|    0.824010|    0.011995|
|         468|   -6.149958|   -8.573681|    0.824010|    0.011995|
|         469|   -6.155505|   -8.575854|    0.824010|    0.011995|
|         470|   -6.161398|   -8.578646|    0.824010|    0.011995|
|         471|   -6.167633|   -8.582051|    0.824009|    0.011995|
|         472|   -6.174206|   -8.586045|    0.824009|    0.011995|
|         473|   -6.181108|   -8.590588|    0.824009|    0.011995|
|         474|   -6.188323|   -8.595625|    0.824009|    0.011995|
|         475|   -6.195828|   -8.601077|    0.824008|    0.011995|
|         476|   -6.203591|   -8.606849|    0.824008|    0.011995|
|         477|   -6.211572|   -8.612829|    0.824008|    0.011995|
|         478|   -6.219724|   -8.618885|    0.824008|    0.011994|
|         479|   -6.227996|   -8.624872|    0.824007|    0.011994|
|         480|   -6.236329|   -8.630635|    0.824007|    0.011994|
|         481|   -6.244659|   -8.636018|    0.824007|    0.011994|
|         482|   -6.252919|   -8.640869|    0.824007|    0.011994|
|         483|   -6.261038|   -8.645051|    0.824007|    0.011994|
|         484|   -6.268943|   -8.648453|    0.824007|    0.011994|
|         485|   -6.276559|   -8.650997|    0.824007|    0.011994|
|         486|   -6.283813|   -8.652643|    0.824006|    0.011994|
|         487|   -6.290633|   -8.653399|    0.824006|    0.011994|
|         488|   -6.296953|   -8.653313|    0.824006|    0.011994|
|         489|   -6.302715|   -8.652474|    0.824006|    0.011994|
|         490|   -6.307869|   -8.651003|    0.824006|    0.011994|
|         491|   -6.312379|   -8.649048|    0.824006|    0.011994|
|         492|   -6.316220|   -8.646766|    0.824006|    0.011994|
|         493|   -6.319379|   -8.644324|    0.824006|    0.011994|
|         494|   -6.321860|   -8.641883|    0.824006|    0.011994|
|         495|   -6.323679|   -8.639595|    0.824006|    0.011994|
|         496|   -6.324865|   -8.637599|    0.824006|    0.011994|
|         497|   -6.325455|   -8.636016|    0.824007|    0.011994|
|         498|   -6.325500|   -8.634946|    0.824007|    0.011994|
|         499|   -6.325054|   -8.634472|    0.824007|    0.011994|
|         500|   -6.324179|   -8.634657|    0.824007|    0.011994|
|         501|   -6.322939|   -8.635544|    0.824007|    0.011993|
+-----------------------------------------------------------------------+
|Fixed CL Mode                           |Value                         |
+-----------------------------------------------------------------------+
|Current CL                              |0.824007                      |
|Target CL                               |0.824                         |
|Previous AOA                            |2.76528                       |
|Changed AoA by                          |-3.40437e-05                  |
+-----------------------------------------------------------------------+
+----------------------------------------------------------------+
|  Inner_Iter|    rms[Rho]|     rms[nu]|          CL|          CD|
+----------------------------------------------------------------+
|         502|   -4.661350|   -8.540083|    0.824007|    0.011993|
|         503|   -5.045652|   -8.586312|    0.824007|    0.011993|
|         504|   -5.288296|   -8.603896|    0.824007|    0.011993|
|         505|   -5.365268|   -8.615745|    0.824007|    0.011993|
|         506|   -5.417305|   -8.625815|    0.824008|    0.011993|
|         507|   -5.485091|   -8.635029|    0.824008|    0.011993|
|         508|   -5.568712|   -8.643695|    0.824008|    0.011993|
|         509|   -5.655442|   -8.651984|    0.824008|    0.011993|
|         510|   -5.729509|   -8.660001|    0.824008|    0.011993|
|         511|   -5.783454|   -8.667731|    0.824008|    0.011993|
|         512|   -5.819209|   -8.675132|    0.824008|    0.011993|
|         513|   -5.840475|   -8.682240|    0.824009|    0.011993|
|         514|   -5.850723|   -8.689150|    0.824009|    0.011993|
|         515|   -5.855172|   -8.695919|    0.824009|    0.011993|
|         516|   -5.859839|   -8.702480|    0.824009|    0.011993|
|         517|   -5.868851|   -8.708706|    0.824009|    0.011993|
|         518|   -5.883239|   -8.714483|    0.824009|    0.011993|
|         519|   -5.901454|   -8.719732|    0.824009|    0.011993|
|         520|   -5.920791|   -8.724433|    0.824009|    0.011993|
|         521|   -5.939058|   -8.728549|    0.824010|    0.011993|
|         522|   -5.955641|   -8.732048|    0.824010|    0.011993|
|         523|   -5.971330|   -8.734857|    0.824010|    0.011993|
|         524|   -5.987286|   -8.736896|    0.824010|    0.011993|
|         525|   -6.004119|   -8.738122|    0.824010|    0.011993|
|         526|   -6.021602|   -8.738520|    0.824010|    0.011993|
|         527|   -6.038915|   -8.738130|    0.824010|    0.011993|
|         528|   -6.055057|   -8.737028|    0.824010|    0.011993|
|         529|   -6.069188|   -8.735319|    0.824010|    0.011993|
|         530|   -6.080807|   -8.733125|    0.824010|    0.011993|
|         531|   -6.089847|   -8.730580|    0.824010|    0.011993|
|         532|   -6.096695|   -8.727800|    0.824010|    0.011993|
|         533|   -6.102125|   -8.724899|    0.824010|    0.011993|
|         534|   -6.107129|   -8.721964|    0.824010|    0.011993|
|         535|   -6.112679|   -8.719065|    0.824010|    0.011993|
|         536|   -6.119529|   -8.716250|    0.824010|    0.011993|
|         537|   -6.128097|   -8.713551|    0.824010|    0.011993|
|         538|   -6.138425|   -8.710991|    0.824010|    0.011993|
|         539|   -6.150197|   -8.708582|    0.824010|    0.011993|
|         540|   -6.162790|   -8.706333|    0.824010|    0.011993|
|         541|   -6.175367|   -8.704250|    0.824010|    0.011993|
|         542|   -6.187042|   -8.702340|    0.824010|    0.011993|
|         543|   -6.197085|   -8.700610|    0.824009|    0.011993|
|         544|   -6.205127|   -8.699068|    0.824009|    0.011994|
|         545|   -6.211260|   -8.697720|    0.824009|    0.011994|
|         546|   -6.215983|   -8.696567|    0.824009|    0.011994|
|         547|   -6.220020|   -8.695606|    0.824009|    0.011994|
|         548|   -6.224101|   -8.694832|    0.824009|    0.011994|
|         549|   -6.228781|   -8.694227|    0.824009|    0.011994|
|         550|   -6.234354|   -8.693771|    0.824009|    0.011994|
|         551|   -6.240840|   -8.693435|    0.824008|    0.011994|
|         552|   -6.248033|   -8.693186|    0.824008|    0.011994|
|         553|   -6.255581|   -8.692988|    0.824008|    0.011994|
|         554|   -6.263087|   -8.692801|    0.824008|    0.011994|
|         555|   -6.270194|   -8.692582|    0.824008|    0.011994|
|         556|   -6.276662|   -8.692294|    0.824008|    0.011994|
|         557|   -6.282394|   -8.691908|    0.824007|    0.011994|
|         558|   -6.287431|   -8.691386|    0.824007|    0.011994|
|         559|   -6.291913|   -8.690703|    0.824007|    0.011994|
|         560|   -6.296026|   -8.689842|    0.824007|    0.011994|
|         561|   -6.299951|   -8.688797|    0.824006|    0.011994|
|         562|   -6.303834|   -8.687575|    0.824006|    0.011994|
|         563|   -6.307770|   -8.686193|    0.824006|    0.011994|
|         564|   -6.311803|   -8.684683|    0.824006|    0.011994|
|         565|   -6.315944|   -8.683081|    0.824005|    0.011994|
|         566|   -6.320181|   -8.681435|    0.824005|    0.011994|
|         567|   -6.324498|   -8.679800|    0.824005|    0.011994|
|         568|   -6.328881|   -8.678234|    0.824004|    0.011994|
|         569|   -6.333329|   -8.676798|    0.824004|    0.011995|
|         570|   -6.337847|   -8.675552|    0.824004|    0.011995|
|         571|   -6.342448|   -8.674551|    0.824004|    0.011995|
|         572|   -6.347146|   -8.673848|    0.824003|    0.011995|
|         573|   -6.351953|   -8.673483|    0.824003|    0.011995|
|         574|   -6.356879|   -8.673490|    0.824003|    0.011995|
|         575|   -6.361926|   -8.673893|    0.824002|    0.011995|
|         576|   -6.367093|   -8.674701|    0.824002|    0.011995|
|         577|   -6.372376|   -8.675910|    0.824002|    0.011995|
|         578|   -6.377770|   -8.677506|    0.824002|    0.011995|
|         579|   -6.383267|   -8.679457|    0.824002|    0.011995|
|         580|   -6.388864|   -8.681724|    0.824001|    0.011995|
|         581|   -6.394555|   -8.684253|    0.824001|    0.011995|
|         582|   -6.400337|   -8.686982|    0.824001|    0.011995|
|         583|   -6.406208|   -8.689841|    0.824001|    0.011995|
|         584|   -6.412165|   -8.692753|    0.824001|    0.011995|
|         585|   -6.418208|   -8.695642|    0.824000|    0.011995|
|         586|   -6.424335|   -8.698435|    0.824000|    0.011995|
|         587|   -6.430544|   -8.701062|    0.824000|    0.011995|
|         588|   -6.436833|   -8.703466|    0.824000|    0.011995|
|         589|   -6.443198|   -8.705603|    0.824000|    0.011995|
|         590|   -6.449635|   -8.707444|    0.824000|    0.011995|
|         591|   -6.456137|   -8.708980|    0.824000|    0.011995|
|         592|   -6.462696|   -8.710219|    0.824000|    0.011995|
|         593|   -6.469300|   -8.711189|    0.824000|    0.011995|
|         594|   -6.475935|   -8.711934|    0.824000|    0.011995|
|         595|   -6.482583|   -8.712508|    0.824000|    0.011995|
|         596|   -6.489221|   -8.712977|    0.824000|    0.011995|
|         597|   -6.495822|   -8.713412|    0.824000|    0.011995|
|         598|   -6.502356|   -8.713884|    0.824000|    0.011995|
|         599|   -6.508789|   -8.714463|    0.824000|    0.011995|
|         600|   -6.515083|   -8.715210|    0.824000|    0.011995|
|         601|   -6.521196|   -8.716179|    0.824000|    0.011995|
|         602|   -6.527088|   -8.717412|    0.824001|    0.011994|
|         603|   -6.532715|   -8.718937|    0.824001|    0.011994|
|         604|   -6.538035|   -8.720771|    0.824001|    0.011994|
|         605|   -6.543007|   -8.722914|    0.824001|    0.011994|
|         606|   -6.547595|   -8.725352|    0.824001|    0.011994|
|         607|   -6.551768|   -8.728060|    0.824001|    0.011994|
|         608|   -6.555499|   -8.730998|    0.824001|    0.011994|
|         609|   -6.558770|   -8.734119|    0.824001|    0.011994|
|         610|   -6.561572|   -8.737364|    0.824001|    0.011994|
|         611|   -6.563904|   -8.740673|    0.824002|    0.011994|
|         612|   -6.565775|   -8.743980|    0.824002|    0.011994|
|         613|   -6.567203|   -8.747221|    0.824002|    0.011994|
|         614|   -6.568212|   -8.750338|    0.824002|    0.011994|
|         615|   -6.568839|   -8.753278|    0.824002|    0.011994|
|         616|   -6.569123|   -8.756000|    0.824002|    0.011994|
|         617|   -6.569112|   -8.758475|    0.824002|    0.011994|
|         618|   -6.568854|   -8.760688|    0.824002|    0.011994|
|         619|   -6.568404|   -8.762639|    0.824002|    0.011994|
|         620|   -6.567815|   -8.764341|    0.824003|    0.011994|
|         621|   -6.567142|   -8.765823|    0.824003|    0.011994|
|         622|   -6.566437|   -8.767123|    0.824003|    0.011994|
|         623|   -6.565752|   -8.768287|    0.824003|    0.011994|
|         624|   -6.565135|   -8.769368|    0.824003|    0.011994|
|         625|   -6.564630|   -8.770421|    0.824003|    0.011994|
|         626|   -6.564280|   -8.771502|    0.824003|    0.011994|
|         627|   -6.564120|   -8.772662|    0.824003|    0.011994|
|         628|   -6.564184|   -8.773949|    0.824003|    0.011993|
|         629|   -6.564502|   -8.775403|    0.824003|    0.011993|
|         630|   -6.565098|   -8.777057|    0.824003|    0.011993|
|         631|   -6.565994|   -8.778933|    0.824003|    0.011993|
|         632|   -6.567207|   -8.781045|    0.824003|    0.011993|
|         633|   -6.568751|   -8.783397|    0.824003|    0.011993|
|         634|   -6.570638|   -8.785983|    0.824003|    0.011993|
|         635|   -6.572874|   -8.788791|    0.824003|    0.011993|
|         636|   -6.575464|   -8.791798|    0.824003|    0.011993|
|         637|   -6.578410|   -8.794976|    0.824003|    0.011993|
|         638|   -6.581711|   -8.798294|    0.824003|    0.011993|
|         639|   -6.585363|   -8.801715|    0.824003|    0.011993|
|         640|   -6.589360|   -8.805204|    0.824003|    0.011993|
|         641|   -6.593694|   -8.808725|    0.824003|    0.011993|
|         642|   -6.598353|   -8.812244|    0.824003|    0.011993|
|         643|   -6.603324|   -8.815734|    0.824003|    0.011993|
|         644|   -6.608594|   -8.819172|    0.824003|    0.011993|
|         645|   -6.614145|   -8.822543|    0.824003|    0.011993|
|         646|   -6.619958|   -8.825839|    0.824003|    0.011993|
|         647|   -6.626014|   -8.829060|    0.824003|    0.011993|
|         648|   -6.632291|   -8.832215|    0.824003|    0.011993|
|         649|   -6.638766|   -8.835316|    0.824003|    0.011993|
|         650|   -6.645415|   -8.838384|    0.824003|    0.011993|
|         651|   -6.652214|   -8.841440|    0.824003|    0.011993|
|         652|   -6.659136|   -8.844508|    0.824003|    0.011994|
|         653|   -6.666156|   -8.847611|    0.824003|    0.011994|
|         654|   -6.673246|   -8.850770|    0.824003|    0.011994|
|         655|   -6.680379|   -8.854002|    0.824003|    0.011994|
|         656|   -6.687528|   -8.857315|    0.824003|    0.011994|
|         657|   -6.694665|   -8.860714|    0.824003|    0.011994|
|         658|   -6.701763|   -8.864195|    0.824003|    0.011994|
|         659|   -6.708793|   -8.867744|    0.824003|    0.011994|
|         660|   -6.715729|   -8.871341|    0.824003|    0.011994|
|         661|   -6.722545|   -8.874957|    0.824003|    0.011994|
|         662|   -6.729214|   -8.878559|    0.824003|    0.011994|
|         663|   -6.735711|   -8.882107|    0.824003|    0.011994|
|         664|   -6.742011|   -8.885560|    0.824003|    0.011994|
|         665|   -6.748093|   -8.888876|    0.824003|    0.011994|
|         666|   -6.753935|   -8.892018|    0.824003|    0.011994|
|         667|   -6.759516|   -8.894949|    0.824003|    0.011994|
|         668|   -6.764820|   -8.897644|    0.824003|    0.011994|
|         669|   -6.769830|   -8.900086|    0.824003|    0.011994|
|         670|   -6.774536|   -8.902268|    0.824003|    0.011994|
|         671|   -6.778926|   -8.904197|    0.824003|    0.011994|
|         672|   -6.782995|   -8.905888|    0.824004|    0.011994|
|         673|   -6.786739|   -8.907371|    0.824004|    0.011995|
|         674|   -6.790160|   -8.908683|    0.824004|    0.011995|
|         675|   -6.793261|   -8.909869|    0.824004|    0.011995|
|         676|   -6.796051|   -8.910980|    0.824004|    0.011995|
|         677|   -6.798543|   -8.912069|    0.824003|    0.011995|
|         678|   -6.800751|   -8.913187|    0.824003|    0.011995|
|         679|   -6.802695|   -8.914386|    0.824003|    0.011995|
|         680|   -6.804399|   -8.915709|    0.824003|    0.011995|
|         681|   -6.805887|   -8.917196|    0.824003|    0.011995|
|         682|   -6.807190|   -8.918878|    0.824003|    0.011995|
|         683|   -6.808336|   -8.920773|    0.824003|    0.011995|
|         684|   -6.809361|   -8.922896|    0.824003|    0.011995|
|         685|   -6.810297|   -8.925245|    0.824003|    0.011995|
|         686|   -6.811180|   -8.927813|    0.824003|    0.011995|
|         687|   -6.812048|   -8.930581|    0.824003|    0.011995|
|         688|   -6.812935|   -8.933523|    0.824003|    0.011995|
|         689|   -6.813878|   -8.936606|    0.824003|    0.011995|
|         690|   -6.814914|   -8.939789|    0.824003|    0.011995|
|         691|   -6.816076|   -8.943030|    0.824003|    0.011995|
|         692|   -6.817399|   -8.946283|    0.824003|    0.011995|
|         693|   -6.818914|   -8.949504|    0.824003|    0.011995|
|         694|   -6.820653|   -8.952649|    0.824003|    0.011995|
|         695|   -6.822644|   -8.955679|    0.824003|    0.011995|
|         696|   -6.824913|   -8.958563|    0.824003|    0.011995|
|         697|   -6.827484|   -8.961275|    0.824003|    0.011995|
|         698|   -6.830378|   -8.963796|    0.824002|    0.011995|
|         699|   -6.833614|   -8.966119|    0.824002|    0.011995|
|         700|   -6.837207|   -8.968244|    0.824002|    0.011995|
|         701|   -6.841170|   -8.970177|    0.824002|    0.011995|
+-----------------------------------------------------------------------+
|Fixed CL Mode                           |Value                         |
+-----------------------------------------------------------------------+
|Current CL                              |0.824002                      |
|Target CL                               |0.824                         |
|Previous AOA                            |2.76524                       |
|Changed AoA by                          |-1.17967e-05                  |
+-----------------------------------------------------------------------+
+----------------------------------------------------------------+
|  Inner_Iter|    rms[Rho]|     rms[nu]|          CL|          CD|
+----------------------------------------------------------------+
|         702|   -5.121659|   -8.912985|    0.824002|    0.011995|
|         703|   -5.506219|   -8.942496|    0.824002|    0.011995|
|         704|   -5.750043|   -8.952471|    0.824002|    0.011995|
|         705|   -5.828262|   -8.958453|    0.824002|    0.011995|
|         706|   -5.881322|   -8.963045|    0.824002|    0.011995|
|         707|   -5.950338|   -8.966850|    0.824002|    0.011995|
|         708|   -6.035712|   -8.970059|    0.824002|    0.011995|
|         709|   -6.124770|   -8.972773|    0.824002|    0.011995|
|         710|   -6.201292|   -8.975066|    0.824002|    0.011995|
|         711|   -6.257155|   -8.976973|    0.824002|    0.011995|
|         712|   -6.294000|   -8.978556|    0.824002|    0.011995|
|         713|   -6.315578|   -8.979918|    0.824002|    0.011995|
|         714|   -6.325621|   -8.981195|    0.824002|    0.011995|
|         715|   -6.329804|   -8.982491|    0.824002|    0.011995|
|         716|   -6.334577|   -8.983849|    0.824002|    0.011995|
|         717|   -6.344296|   -8.985277|    0.824002|    0.011995|
|         718|   -6.359998|   -8.986783|    0.824002|    0.011995|
|         719|   -6.379945|   -8.988385|    0.824002|    0.011995|
|         720|   -6.401087|   -8.990113|    0.824002|    0.011995|
|         721|   -6.420860|   -8.991986|    0.824002|    0.011995|
|         722|   -6.438438|   -8.994006|    0.824002|    0.011994|
|         723|   -6.454648|   -8.996156|    0.824002|    0.011994|
|         724|   -6.470843|   -8.998409|    0.824002|    0.011994|
|         725|   -6.487847|   -9.000739|    0.824002|    0.011994|
|         726|   -6.505601|   -9.003127|    0.824001|    0.011994|
|         727|   -6.523392|   -9.005560|    0.824001|    0.011994|
|         728|   -6.540272|   -9.008030|    0.824001|    0.011994|
|         729|   -6.555388|   -9.010538|    0.824001|    0.011994|
|         730|   -6.568164|   -9.013087|    0.824001|    0.011994|
|         731|   -6.578406|   -9.015683|    0.824001|    0.011994|
|         732|   -6.586379|   -9.018331|    0.824001|    0.011994|
|         733|   -6.592785|   -9.021040|    0.824001|    0.011994|
|         734|   -6.598625|   -9.023812|    0.824001|    0.011994|
|         735|   -6.604943|   -9.026652|    0.824001|    0.011994|
|         736|   -6.612604|   -9.029557|    0.824001|    0.011994|
|         737|   -6.622140|   -9.032527|    0.824001|    0.011994|
|         738|   -6.633686|   -9.035555|    0.824001|    0.011994|
|         739|   -6.646982|   -9.038640|    0.824001|    0.011994|
|         740|   -6.661401|   -9.041775|    0.824001|    0.011994|
|         741|   -6.676038|   -9.044956|    0.824001|    0.011994|
|         742|   -6.689871|   -9.048180|    0.824001|    0.011994|
|         743|   -6.702003|   -9.051446|    0.824001|    0.011994|
|         744|   -6.711924|   -9.054754|    0.824001|    0.011994|
|         745|   -6.719670|   -9.058105|    0.824001|    0.011994|
|         746|   -6.725789|   -9.061498|    0.824001|    0.011994|
|         747|   -6.731138|   -9.064933|    0.824001|    0.011994|
|         748|   -6.736611|   -9.068406|    0.824001|    0.011994|
|         749|   -6.742918|   -9.071913|    0.824001|    0.011994|
|         750|   -6.750460|   -9.075446|    0.824001|    0.011994|
|         751|   -6.759305|   -9.078993|    0.824001|    0.011994|
|         752|   -6.769231|   -9.082542|    0.824001|    0.011994|
|         753|   -6.779815|   -9.086082|    0.824001|    0.011994|
|         754|   -6.790543|   -9.089602|    0.824001|    0.011994|
|         755|   -6.800923|   -9.093092|    0.824001|    0.011994|
|         756|   -6.810584|   -9.096546|    0.824001|    0.011994|
|         757|   -6.819332|   -9.099966|    0.824001|    0.011994|
|         758|   -6.827162|   -9.103353|    0.824001|    0.011994|
|         759|   -6.834209|   -9.106721|    0.824001|    0.011994|
|         760|   -6.840690|   -9.110088|    0.824001|    0.011994|
|         761|   -6.846828|   -9.113481|    0.824001|    0.011994|
|         762|   -6.852807|   -9.116944|    0.824001|    0.011994|
|         763|   -6.858741|   -9.120511|    0.824001|    0.011994|
|         764|   -6.864679|   -9.124241|    0.824001|    0.011994|
|         765|   -6.870613|   -9.128176|    0.824001|    0.011994|
|         766|   -6.876507|   -9.132379|    0.824001|    0.011994|
|         767|   -6.882312|   -9.136901|    0.824001|    0.011994|
|         768|   -6.887988|   -9.141792|    0.824001|    0.011994|
|         769|   -6.893506|   -9.147098|    0.824001|    0.011994|
|         770|   -6.898850|   -9.152858|    0.824001|    0.011994|
|         771|   -6.904017|   -9.159101|    0.824001|    0.011994|
|         772|   -6.909005|   -9.165841|    0.824001|    0.011994|
|         773|   -6.913810|   -9.173076|    0.824001|    0.011994|
|         774|   -6.918422|   -9.180788|    0.824000|    0.011994|
|         775|   -6.922825|   -9.188936|    0.824000|    0.011994|
|         776|   -6.926997|   -9.197459|    0.824000|    0.011994|
|         777|   -6.930912|   -9.206275|    0.824000|    0.011994|
|         778|   -6.934546|   -9.215279|    0.824000|    0.011994|
|         779|   -6.937878|   -9.224350|    0.824000|    0.011994|
|         780|   -6.940890|   -9.233348|    0.824000|    0.011994|
|         781|   -6.943572|   -9.242125|    0.824000|    0.011994|
|         782|   -6.945919|   -9.250528|    0.824000|    0.011994|
|         783|   -6.947935|   -9.258413|    0.824000|    0.011994|
|         784|   -6.949626|   -9.265651|    0.824000|    0.011994|
|         785|   -6.951007|   -9.272139|    0.824000|    0.011994|
|         786|   -6.952098|   -9.277809|    0.824000|    0.011994|
|         787|   -6.952922|   -9.282632|    0.824000|    0.011994|
|         788|   -6.953508|   -9.286624|    0.824000|    0.011994|
|         789|   -6.953886|   -9.289843|    0.824000|    0.011994|
|         790|   -6.954089|   -9.292381|    0.824000|    0.011994|
|         791|   -6.954152|   -9.294360|    0.824000|    0.011994|
|         792|   -6.954108|   -9.295922|    0.824000|    0.011994|
|         793|   -6.953988|   -9.297217|    0.824000|    0.011994|
|         794|   -6.953824|   -9.298396|    0.824000|    0.011994|
|         795|   -6.953640|   -9.299599|    0.824000|    0.011995|
|         796|   -6.953459|   -9.300954|    0.824000|    0.011995|
|         797|   -6.953297|   -9.302568|    0.824000|    0.011995|
|         798|   -6.953168|   -9.304524|    0.824000|    0.011995|
|         799|   -6.953077|   -9.306883|    0.824000|    0.011995|
|         800|   -6.953026|   -9.309680|    0.824000|    0.011995|
|         801|   -6.953013|   -9.312923|    0.824000|    0.011995|
|         802|   -6.953027|   -9.316598|    0.824000|    0.011995|
|         803|   -6.953058|   -9.320666|    0.824000|    0.011995|
|         804|   -6.953089|   -9.325066|    0.824000|    0.011995|
|         805|   -6.953100|   -9.329718|    0.824000|    0.011995|
|         806|   -6.953070|   -9.334524|    0.824000|    0.011995|
|         807|   -6.952974|   -9.339375|    0.824000|    0.011995|
|         808|   -6.952787|   -9.344154|    0.824000|    0.011995|
|         809|   -6.952487|   -9.348739|    0.824000|    0.011995|
|         810|   -6.952048|   -9.353015|    0.824000|    0.011995|
|         811|   -6.951449|   -9.356875|    0.824000|    0.011995|
|         812|   -6.950673|   -9.360232|    0.824000|    0.011995|
|         813|   -6.949702|   -9.363019|    0.824001|    0.011995|
|         814|   -6.948528|   -9.365198|    0.824001|    0.011995|
|         815|   -6.947143|   -9.366760|    0.824001|    0.011995|
|         816|   -6.945546|   -9.367726|    0.824001|    0.011995|
|         817|   -6.943743|   -9.368145|    0.824001|    0.011995|
|         818|   -6.941744|   -9.368089|    0.824001|    0.011995|
|         819|   -6.939562|   -9.367650|    0.824001|    0.011995|
|         820|   -6.937219|   -9.366932|    0.824001|    0.011995|
|         821|   -6.934737|   -9.366045|    0.824001|    0.011995|
|         822|   -6.932144|   -9.365101|    0.824000|    0.011995|
|         823|   -6.929469|   -9.364208|    0.824000|    0.011995|
|         824|   -6.926746|   -9.363465|    0.824000|    0.011995|
|         825|   -6.924008|   -9.362963|    0.824000|    0.011995|
|         826|   -6.921288|   -9.362777|    0.824000|    0.011995|
|         827|   -6.918621|   -9.362972|    0.824000|    0.011995|
|         828|   -6.916040|   -9.363597|    0.824000|    0.011995|
|         829|   -6.913576|   -9.364688|    0.824000|    0.011995|
|         830|   -6.911260|   -9.366266|    0.824000|    0.011995|
|         831|   -6.909121|   -9.368340|    0.824000|    0.011995|
|         832|   -6.907184|   -9.370906|    0.824000|    0.011995|
|         833|   -6.905473|   -9.373946|    0.824000|    0.011995|
|         834|   -6.904007|   -9.377435|    0.824000|    0.011995|
|         835|   -6.902805|   -9.381333|    0.824000|    0.011995|
|         836|   -6.901881|   -9.385595|    0.824000|    0.011995|
|         837|   -6.901245|   -9.390166|    0.824000|    0.011995|
|         838|   -6.900905|   -9.394986|    0.824000|    0.011995|
|         839|   -6.900867|   -9.399990|    0.824000|    0.011995|
|         840|   -6.901132|   -9.405113|    0.824000|    0.011995|
|         841|   -6.901697|   -9.410288|    0.824000|    0.011995|
|         842|   -6.902559|   -9.415453|    0.824000|    0.011994|
|         843|   -6.903708|   -9.420550|    0.824000|    0.011994|
|         844|   -6.905134|   -9.425533|    0.824000|    0.011994|
|         845|   -6.906822|   -9.430363|    0.824000|    0.011994|
|         846|   -6.908756|   -9.435015|    0.824000|    0.011994|
|         847|   -6.910916|   -9.439476|    0.824000|    0.011994|
|         848|   -6.913279|   -9.443750|    0.824000|    0.011994|
|         849|   -6.915820|   -9.447850|    0.824000|    0.011994|
|         850|   -6.918512|   -9.451802|    0.824000|    0.011994|
|         851|   -6.921323|   -9.455642|    0.824000|    0.011994|
|         852|   -6.924223|   -9.459411|    0.824000|    0.011994|
|         853|   -6.927176|   -9.463152|    0.824000|    0.011994|
|         854|   -6.930148|   -9.466911|    0.824000|    0.011994|
|         855|   -6.933102|   -9.470725|    0.824000|    0.011994|
|         856|   -6.935999|   -9.474628|    0.824000|    0.011994|
|         857|   -6.938801|   -9.478642|    0.824000|    0.011994|
|         858|   -6.941471|   -9.482777|    0.824000|    0.011994|
|         859|   -6.943971|   -9.487027|    0.824000|    0.011994|
|         860|   -6.946265|   -9.491372|    0.824000|    0.011994|
|         861|   -6.948319|   -9.495776|    0.824000|    0.011994|
|         862|   -6.950103|   -9.500185|    0.824000|    0.011994|
|         863|   -6.951589|   -9.504532|    0.824000|    0.011994|
|         864|   -6.952753|   -9.508738|    0.824000|    0.011994|
|         865|   -6.953576|   -9.512714|    0.824000|    0.011994|
|         866|   -6.954047|   -9.516368|    0.824000|    0.011994|
|         867|   -6.954157|   -9.519608|    0.824000|    0.011994|
|         868|   -6.953904|   -9.522350|    0.824000|    0.011994|
|         869|   -6.953292|   -9.524524|    0.824000|    0.011994|
|         870|   -6.952333|   -9.526078|    0.824000|    0.011994|
|         871|   -6.951040|   -9.526985|    0.824000|    0.011994|
|         872|   -6.949436|   -9.527244|    0.824000|    0.011994|
|         873|   -6.947544|   -9.526879|    0.824000|    0.011994|
|         874|   -6.945395|   -9.525944|    0.824000|    0.011994|
|         875|   -6.943021|   -9.524512|    0.824000|    0.011994|
|         876|   -6.940457|   -9.522676|    0.824000|    0.011994|
|         877|   -6.937739|   -9.520539|    0.824000|    0.011994|
|         878|   -6.934904|   -9.518211|    0.824000|    0.011994|
|         879|   -6.931992|   -9.515802|    0.824000|    0.011994|
|         880|   -6.929039|   -9.513417|    0.824000|    0.011994|
|         881|   -6.926083|   -9.511152|    0.824000|    0.011994|
|         882|   -6.923159|   -9.509091|    0.824000|    0.011994|
|         883|   -6.920301|   -9.507303|    0.824000|    0.011994|
|         884|   -6.917542|   -9.505843|    0.824000|    0.011994|
|         885|   -6.914913|   -9.504748|    0.824000|    0.011994|
|         886|   -6.912440|   -9.504041|    0.824000|    0.011994|
|         887|   -6.910150|   -9.503728|    0.824000|    0.011994|
|         888|   -6.908067|   -9.503803|    0.824000|    0.011994|
|         889|   -6.906211|   -9.504244|    0.824001|    0.011994|
|         890|   -6.904600|   -9.505020|    0.824001|    0.011994|
|         891|   -6.903252|   -9.506091|    0.824001|    0.011994|
|         892|   -6.902180|   -9.507409|    0.824001|    0.011994|
|         893|   -6.901395|   -9.508922|    0.824001|    0.011994|
|         894|   -6.900908|   -9.510576|    0.824001|    0.011994|
|         895|   -6.900725|   -9.512315|    0.824001|    0.011994|
|         896|   -6.900852|   -9.514089|    0.824001|    0.011994|
|         897|   -6.901291|   -9.515851|    0.824001|    0.011994|
|         898|   -6.902044|   -9.517562|    0.824001|    0.011994|
|         899|   -6.903109|   -9.519193|    0.824001|    0.011994|
|         900|   -6.904483|   -9.520722|    0.824001|    0.011994|
|         901|   -6.906161|   -9.522141|    0.824001|    0.011994|
+-----------------------------------------------------------------------+
|Fixed CL Mode                           |Value                         |
+-----------------------------------------------------------------------+
|Current CL                              |0.824001                      |
|Target CL                               |0.824                         |
|Previous AOA                            |2.76523                       |
|Changed AoA by                          |-2.89901e-06                  |
+-----------------------------------------------------------------------+
+----------------------------------------------------------------+
|  Inner_Iter|    rms[Rho]|     rms[nu]|          CL|          CD|
+----------------------------------------------------------------+
|         902|   -5.730275|   -9.478373|    0.824001|    0.011994|
|         903|   -6.110600|   -9.501552|    0.824001|    0.011994|
|         904|   -6.345263|   -9.508876|    0.824001|    0.011994|
|         905|   -6.418827|   -9.513214|    0.824001|    0.011994|
|         906|   -6.467693|   -9.516707|    0.824001|    0.011994|
|         907|   -6.528851|   -9.519821|    0.824001|    0.011994|
|         908|   -6.600473|   -9.522640|    0.824001|    0.011994|
|         909|   -6.669420|   -9.525179|    0.824001|    0.011994|
|         910|   -6.722958|   -9.527451|    0.824001|    0.011994|
|         911|   -6.758329|   -9.529468|    0.824000|    0.011994|
|         912|   -6.780002|   -9.531280|    0.824000|    0.011994|
|         913|   -6.792352|   -9.532996|    0.824000|    0.011995|
|         914|   -6.798471|   -9.534745|    0.824000|    0.011995|
|         915|   -6.801717|   -9.536661|    0.824000|    0.011995|
|         916|   -6.805514|   -9.538796|    0.824000|    0.011995|
|         917|   -6.812056|   -9.541184|    0.824000|    0.011995|
|         918|   -6.821646|   -9.543850|    0.824000|    0.011995|
|         919|   -6.833052|   -9.546825|    0.824000|    0.011995|
[...]
|        5298|   -6.048033|   -7.942563|    0.824239|    0.011999|
|        5299|   -6.054745|   -7.946383|    0.824239|    0.011999|
|        5300|   -6.061020|   -7.950279|    0.824239|    0.011999|
|        5301|   -6.066824|   -7.954263|    0.824239|    0.011999|
|        5302|   -6.072138|   -7.958343|    0.824239|    0.011998|
|        5303|   -6.076952|   -7.962530|    0.824239|    0.011998|
|        5304|   -6.081273|   -7.966823|    0.824240|    0.011998|
|        5305|   -6.085119|   -7.971222|    0.824240|    0.011998|
|        5306|   -6.088519|   -7.975725|    0.824240|    0.011998|
|        5307|   -6.091514|   -7.980327|    0.824240|    0.011998|
|        5308|   -6.094151|   -7.985022|    0.824240|    0.011998|
|        5309|   -6.096485|   -7.989805|    0.824240|    0.011998|
|        5310|   -6.098574|   -7.994671|    0.824240|    0.011998|
|        5311|   -6.100479|   -7.999612|    0.824240|    0.011998|
|        5312|   -6.102262|   -8.004625|    0.824240|    0.011998|
|        5313|   -6.103980|   -8.009704|    0.824241|    0.011998|
|        5314|   -6.105693|   -8.014848|    0.824241|    0.011998|
|        5315|   -6.107451|   -8.020053|    0.824241|    0.011998|
|        5316|   -6.109303|   -8.025320|    0.824241|    0.011998|
|        5317|   -6.111291|   -8.030648|    0.824241|    0.011998|
|        5318|   -6.113451|   -8.036038|    0.824241|    0.011998|
|        5319|   -6.115813|   -8.041490|    0.824241|    0.011998|
|        5320|   -6.118399|   -8.047008|    0.824242|    0.011998|
|        5321|   -6.121226|   -8.052593|    0.824242|    0.011998|
|        5322|   -6.124303|   -8.058245|    0.824242|    0.011998|
|        5323|   -6.127632|   -8.063966|    0.824242|    0.011999|
|        5324|   -6.131208|   -8.069755|    0.824242|    0.011999|
|        5325|   -6.135022|   -8.075611|    0.824242|    0.011999|
|        5326|   -6.139057|   -8.081533|    0.824243|    0.011999|
|        5327|   -6.143288|   -8.087518|    0.824243|    0.011999|
|        5328|   -6.147689|   -8.093560|    0.824243|    0.011999|
|        5329|   -6.152225|   -8.099656|    0.824243|    0.011999|
|        5330|   -6.156858|   -8.105798|    0.824243|    0.011999|
|        5331|   -6.161547|   -8.111981|    0.824243|    0.011999|
|        5332|   -6.166247|   -8.118198|    0.824244|    0.011999|
|        5333|   -6.170910|   -8.124442|    0.824244|    0.011999|
|        5334|   -6.175493|   -8.130708|    0.824244|    0.011999|
|        5335|   -6.179950|   -8.136988|    0.824244|    0.011999|
|        5336|   -6.184239|   -8.143278|    0.824244|    0.012000|
|        5337|   -6.188323|   -8.149573|    0.824244|    0.012000|
|        5338|   -6.192170|   -8.155869|    0.824245|    0.012000|
|        5339|   -6.195756|   -8.162164|    0.824245|    0.012000|
|        5340|   -6.199062|   -8.168457|    0.824245|    0.012000|
|        5341|   -6.202079|   -8.174749|    0.824245|    0.012000|
|        5342|   -6.204808|   -8.181043|    0.824245|    0.012000|
|        5343|   -6.207256|   -8.187342|    0.824245|    0.012000|
|        5344|   -6.209442|   -8.193652|    0.824246|    0.012000|
|        5345|   -6.211389|   -8.199979|    0.824246|    0.012000|
|        5346|   -6.213130|   -8.206330|    0.824246|    0.012000|
|        5347|   -6.214702|   -8.212714|    0.824246|    0.012000|
|        5348|   -6.216146|   -8.219138|    0.824246|    0.012000|
|        5349|   -6.217507|   -8.225611|    0.824246|    0.012000|
|        5350|   -6.218830|   -8.232141|    0.824246|    0.012001|
|        5351|   -6.220163|   -8.238737|    0.824246|    0.012001|
|        5352|   -6.221549|   -8.245406|    0.824247|    0.012001|
|        5353|   -6.223034|   -8.252154|    0.824247|    0.012001|
|        5354|   -6.224657|   -8.258988|    0.824247|    0.012001|
|        5355|   -6.226457|   -8.265912|    0.824247|    0.012001|
|        5356|   -6.228466|   -8.272930|    0.824247|    0.012001|
|        5357|   -6.230714|   -8.280043|    0.824247|    0.012001|
|        5358|   -6.233226|   -8.287252|    0.824247|    0.012001|
|        5359|   -6.236023|   -8.294555|    0.824247|    0.012001|
|        5360|   -6.239119|   -8.301950|    0.824247|    0.012001|
|        5361|   -6.242525|   -8.309431|    0.824247|    0.012001|
|        5362|   -6.246246|   -8.316994|    0.824247|    0.012001|
|        5363|   -6.250282|   -8.324632|    0.824247|    0.012001|
|        5364|   -6.254629|   -8.332338|    0.824247|    0.012001|
|        5365|   -6.259276|   -8.340101|    0.824248|    0.012001|
|        5366|   -6.264210|   -8.347913|    0.824248|    0.012001|
|        5367|   -6.269411|   -8.355763|    0.824248|    0.012001|
|        5368|   -6.274853|   -8.363637|    0.824248|    0.012001|
|        5369|   -6.280507|   -8.371526|    0.824248|    0.012001|
|        5370|   -6.286340|   -8.379416|    0.824248|    0.012001|
|        5371|   -6.292314|   -8.387298|    0.824248|    0.012001|
|        5372|   -6.298386|   -8.395160|    0.824248|    0.012001|
|        5373|   -6.304512|   -8.402992|    0.824248|    0.012001|
|        5374|   -6.310644|   -8.410786|    0.824248|    0.012001|
|        5375|   -6.316733|   -8.418532|    0.824248|    0.012001|
|        5376|   -6.322729|   -8.426222|    0.824248|    0.012001|
|        5377|   -6.328583|   -8.433849|    0.824248|    0.012001|
|        5378|   -6.334245|   -8.441408|    0.824248|    0.012001|
|        5379|   -6.339671|   -8.448897|    0.824248|    0.012000|
|        5380|   -6.344820|   -8.456313|    0.824248|    0.012000|
|        5381|   -6.349654|   -8.463657|    0.824248|    0.012000|
|        5382|   -6.354145|   -8.470930|    0.824248|    0.012000|
|        5383|   -6.358267|   -8.478137|    0.824248|    0.012000|
|        5384|   -6.362007|   -8.485279|    0.824248|    0.012000|
|        5385|   -6.365354|   -8.492364|    0.824248|    0.012000|
|        5386|   -6.368309|   -8.499395|    0.824248|    0.012000|
|        5387|   -6.370876|   -8.506379|    0.824248|    0.012000|
|        5388|   -6.373070|   -8.513318|    0.824248|    0.012000|
|        5389|   -6.374906|   -8.520216|    0.824248|    0.012000|
|        5390|   -6.376408|   -8.527075|    0.824249|    0.012000|
|        5391|   -6.377600|   -8.533894|    0.824249|    0.012000|
|        5392|   -6.378509|   -8.540668|    0.824249|    0.011999|
|        5393|   -6.379164|   -8.547391|    0.824249|    0.011999|
|        5394|   -6.379593|   -8.554053|    0.824249|    0.011999|
|        5395|   -6.379822|   -8.560642|    0.824249|    0.011999|
|        5396|   -6.379878|   -8.567139|    0.824249|    0.011999|
|        5397|   -6.379782|   -8.573526|    0.824249|    0.011999|
|        5398|   -6.379557|   -8.579781|    0.824250|    0.011999|
|        5399|   -6.379220|   -8.585878|    0.824250|    0.011999|
|        5400|   -6.378787|   -8.591794|    0.824250|    0.011999|
|        5401|   -6.378271|   -8.597502|    0.824250|    0.011999|
|        5402|   -6.377683|   -8.602977|    0.824250|    0.011998|
|        5403|   -6.377030|   -8.608195|    0.824251|    0.011998|
|        5404|   -6.376320|   -8.613137|    0.824251|    0.011998|
|        5405|   -6.375558|   -8.617784|    0.824251|    0.011998|
|        5406|   -6.374747|   -8.622124|    0.824251|    0.011998|
|        5407|   -6.373892|   -8.626150|    0.824251|    0.011998|
|        5408|   -6.372994|   -8.629858|    0.824251|    0.011998|
|        5409|   -6.372056|   -8.633252|    0.824252|    0.011998|
|        5410|   -6.371080|   -8.636336|    0.824252|    0.011998|
|        5411|   -6.370069|   -8.639126|    0.824252|    0.011998|
|        5412|   -6.369024|   -8.641641|    0.824252|    0.011998|
|        5413|   -6.367950|   -8.643901|    0.824252|    0.011997|
|        5414|   -6.366849|   -8.645931|    0.824253|    0.011997|
|        5415|   -6.365725|   -8.647755|    0.824253|    0.011997|
|        5416|   -6.364583|   -8.649398|    0.824253|    0.011997|
|        5417|   -6.363428|   -8.650885|    0.824253|    0.011997|
|        5418|   -6.362267|   -8.652240|    0.824253|    0.011997|
|        5419|   -6.361105|   -8.653483|    0.824254|    0.011997|
|        5420|   -6.359951|   -8.654634|    0.824254|    0.011997|
|        5421|   -6.358811|   -8.655708|    0.824254|    0.011997|
|        5422|   -6.357696|   -8.656718|    0.824254|    0.011997|
|        5423|   -6.356614|   -8.657672|    0.824254|    0.011997|
|        5424|   -6.355576|   -8.658578|    0.824254|    0.011997|
|        5425|   -6.354596|   -8.659440|    0.824255|    0.011997|
|        5426|   -6.353682|   -8.660262|    0.824255|    0.011997|
|        5427|   -6.352848|   -8.661043|    0.824255|    0.011997|
|        5428|   -6.352107|   -8.661782|    0.824255|    0.011997|
|        5429|   -6.351473|   -8.662474|    0.824255|    0.011997|
|        5430|   -6.350960|   -8.663114|    0.824255|    0.011997|
|        5431|   -6.350584|   -8.663695|    0.824255|    0.011997|
|        5432|   -6.350359|   -8.664216|    0.824255|    0.011997|
|        5433|   -6.350300|   -8.664673|    0.824256|    0.011997|
|        5434|   -6.350424|   -8.665069|    0.824256|    0.011997|
|        5435|   -6.350746|   -8.665407|    0.824256|    0.011997|
|        5436|   -6.351281|   -8.665694|    0.824256|    0.011997|
|        5437|   -6.352041|   -8.665941|    0.824256|    0.011997|
|        5438|   -6.353042|   -8.666157|    0.824256|    0.011997|
|        5439|   -6.354294|   -8.666355|    0.824256|    0.011997|
|        5440|   -6.355809|   -8.666549|    0.824256|    0.011997|
|        5441|   -6.357596|   -8.666752|    0.824256|    0.011997|
|        5442|   -6.359661|   -8.666979|    0.824256|    0.011997|
|        5443|   -6.362010|   -8.667243|    0.824257|    0.011997|
|        5444|   -6.364646|   -8.667560|    0.824257|    0.011997|
|        5445|   -6.367570|   -8.667941|    0.824257|    0.011997|
|        5446|   -6.370778|   -8.668400|    0.824257|    0.011997|
|        5447|   -6.374266|   -8.668947|    0.824257|    0.011997|
|        5448|   -6.378026|   -8.669593|    0.824257|    0.011997|
|        5449|   -6.382046|   -8.670344|    0.824257|    0.011997|
|        5450|   -6.386311|   -8.671209|    0.824257|    0.011997|
|        5451|   -6.390803|   -8.672193|    0.824257|    0.011998|
|        5452|   -6.395499|   -8.673299|    0.824257|    0.011998|
|        5453|   -6.400375|   -8.674530|    0.824257|    0.011998|
|        5454|   -6.405402|   -8.675888|    0.824257|    0.011998|
|        5455|   -6.410546|   -8.677372|    0.824257|    0.011998|
|        5456|   -6.415773|   -8.678982|    0.824257|    0.011998|
|        5457|   -6.421043|   -8.680714|    0.824257|    0.011998|
|        5458|   -6.426315|   -8.682567|    0.824257|    0.011998|
|        5459|   -6.431547|   -8.684536|    0.824257|    0.011998|
|        5460|   -6.436693|   -8.686619|    0.824257|    0.011998|
|        5461|   -6.441708|   -8.688810|    0.824257|    0.011998|
|        5462|   -6.446548|   -8.691106|    0.824257|    0.011998|
|        5463|   -6.451169|   -8.693503|    0.824257|    0.011999|
|        5464|   -6.455528|   -8.695995|    0.824257|    0.011999|
|        5465|   -6.459587|   -8.698580|    0.824257|    0.011999|
|        5466|   -6.463313|   -8.701252|    0.824257|    0.011999|
|        5467|   -6.466675|   -8.704009|    0.824257|    0.011999|
|        5468|   -6.469652|   -8.706846|    0.824257|    0.011999|
|        5469|   -6.472225|   -8.709760|    0.824257|    0.011999|
|        5470|   -6.474386|   -8.712746|    0.824257|    0.011999|
|        5471|   -6.476132|   -8.715802|    0.824257|    0.011999|
|        5472|   -6.477469|   -8.718922|    0.824257|    0.011999|
|        5473|   -6.478407|   -8.722103|    0.824257|    0.011999|
|        5474|   -6.478965|   -8.725339|    0.824257|    0.011999|
|        5475|   -6.479167|   -8.728624|    0.824257|    0.011999|
|        5476|   -6.479040|   -8.731953|    0.824257|    0.012000|
|        5477|   -6.478618|   -8.735318|    0.824256|    0.012000|
|        5478|   -6.477936|   -8.738713|    0.824256|    0.012000|
|        5479|   -6.477030|   -8.742130|    0.824256|    0.012000|
|        5480|   -6.475940|   -8.745562|    0.824256|    0.012000|
|        5481|   -6.474704|   -8.748998|    0.824256|    0.012000|
|        5482|   -6.473359|   -8.752430|    0.824256|    0.012000|
|        5483|   -6.471942|   -8.755849|    0.824256|    0.012000|
|        5484|   -6.470489|   -8.759245|    0.824256|    0.012000|
|        5485|   -6.469033|   -8.762607|    0.824256|    0.012000|
|        5486|   -6.467605|   -8.765925|    0.824256|    0.012000|
|        5487|   -6.466232|   -8.769190|    0.824256|    0.012000|
|        5488|   -6.464942|   -8.772392|    0.824256|    0.012000|
|        5489|   -6.463756|   -8.775522|    0.824255|    0.012000|
|        5490|   -6.462695|   -8.778573|    0.824255|    0.012000|
|        5491|   -6.461777|   -8.781538|    0.824255|    0.012000|
|        5492|   -6.461017|   -8.784410|    0.824255|    0.012000|
|        5493|   -6.460429|   -8.787185|    0.824255|    0.012000|
|        5494|   -6.460021|   -8.789860|    0.824255|    0.012000|
|        5495|   -6.459804|   -8.792433|    0.824255|    0.012000|
|        5496|   -6.459784|   -8.794903|    0.824255|    0.012000|
|        5497|   -6.459966|   -8.797270|    0.824255|    0.012000|
|        5498|   -6.460353|   -8.799536|    0.824255|    0.012000|
|        5499|   -6.460947|   -8.801701|    0.824255|    0.011985|
+-----------------------------------------------------------------------+
|Fixed CL Mode (Finite Difference)       |Value                         |
+-----------------------------------------------------------------------+
|Delta CL / Delta AoA                    |0.255159                      |
|Delta CD / Delta CL                     |0.0209083                     |
|Delta CMz / Delta CL                    |0.0185072                     |
+-----------------------------------------------------------------------+
Writing Flow Meta-Data file: flow.meta

----------------------------- Solver Exit -------------------------------

Maximum number of iterations reached (ITER = 5500) before convergence.
+-----------------------------------------------------------------------+
|      Convergence Field     |     Value    |   Criterion  |  Converged |
+-----------------------------------------------------------------------+
|                    rms[Rho]|      -6.46095|         < -12|          No|
+-----------------------------------------------------------------------+
-------------------------------------------------------------------------

--------------------------- Finalizing Solver ---------------------------
Deleted CNumerics container.
Deleted CIntegration container.
Deleted CSolver container.
Deleted CIteration container.
Deleted CInterface container.
Deleted CGeometry container.
Deleted CFreeFormDefBox class.
Deleted CSurfaceMovement class.
Deleted CVolumetricMovement class.
Deleted CConfig container.
Deleted nInst container.
Deleted COutput class.
-------------------------------------------------------------------------

------------------------- Exit Success (SU2_CFD) ------------------------


-------------------------------------------------------------------------
|    ___ _   _ ___                                                      |
|   / __| | | |_  )   Release 8.0.0 "Harrier"                           |
|   \__ \ |_| |/ /                                                      |
|   |___/\___//___|   Suite (Solution Exporting Code)                   |
|                                                                       |
-------------------------------------------------------------------------
| SU2 Project Website: https://su2code.github.io                        |
|                                                                       |
| The SU2 Project is maintained by the SU2 Foundation                   |
| (http://su2foundation.org)                                            |
-------------------------------------------------------------------------
| Copyright 2012-2023, SU2 Contributors                                 |
|                                                                       |
| SU2 is free software; you can redistribute it and/or                  |
| modify it under the terms of the GNU Lesser General Public            |
| License as published by the Free Software Foundation; either          |
| version 2.1 of the License, or (at your option) any later version.    |
|                                                                       |
| SU2 is distributed in the hope that it will be useful,                |
| but WITHOUT ANY WARRANTY; without even the implied warranty of        |
| MERCHANTABILITY or FITNESS FOR A PARTICULAR PURPOSE. See the GNU      |
| Lesser General Public License for more details.                       |
|                                                                       |
| You should have received a copy of the GNU Lesser General Public      |
| License along with SU2. If not, see <http://www.gnu.org/licenses/>.   |
-------------------------------------------------------------------------

----------------- Physical Case Definition ( Zone 0 ) -------------------
Input mesh file name: mesh_RAE2822_turb_deform.su2

-------------------- Output Information ( Zone 0 ) ----------------------
The tabular file format is CSV (.csv).
Flow variables file name: flow.

------------- Config File Boundary Information ( Zone 0 ) ---------------
+-----------------------------------------------------------------------+
|                        Marker Type|                        Marker Name|
+-----------------------------------------------------------------------+
|                          Far-field|                           FARFIELD|
+-----------------------------------------------------------------------+
|                     Heat flux wall|                            AIRFOIL|
+-----------------------------------------------------------------------+
Two dimensional problem.
13937 grid points before partitioning.
22842 volume elements before partitioning.
2 surface markers.
192 boundary elements in index 0 (Marker = AIRFOIL).
40 boundary elements in index 1 (Marker = FARFIELD).
Executing the partitioning functions.
Building the graph adjacency structure.
Calling ParMETIS... graph partitioning complete (831 edge cuts).
Distributing ParMETIS coloring.
Rebalancing vertices.
Rebalancing volume element connectivity.
Rebalancing markers and surface elements.
14875 vertices including ghost points. 
23674 interior elements including halo cells. 
18780 triangles.
4894 quadrilaterals.
Establishing MPI communication patterns.
Identify vertices.
Storing a mapping from global to local point index.

------------------------- Solution Postprocessing -----------------------
Reading and storing the solution from restart_flow.
Volume output fields: COORDINATES, SOLUTION
  Info: Ignoring the following screen output fields:
  RMS_DENSITY, RMS_NU_TILDE, LIFT, DRAG
Screen output fields: INNER_ITER
  Info: Ignoring the following history output groups:
  RMS_RES, AERO_COEFF
History output group(s): ITER
Warning: No (valid) fields chosen for convergence monitoring. Convergence monitoring inactive.
Warning: No (valid) fields chosen for time convergence monitoring. Time convergence monitoring inactive.
|Paraview                           |flow.vtu                           |
|Paraview surface                   |surface_flow.vtu                   |
|CSV file                           |surface_flow.csv                   |

------------------------- Finalize Solver -------------------------
Deleted CGeometry container.
Deleted CSolver class.
Deleted CConfig container.
Deleted COutput class.

Completed in 0.019109 seconds on 6 cores.

------------------------- Exit Success (SU2_SOL) ------------------------

