
-------------------------------------------------------------------------
|    ___ _   _ ___                                                      |
|   / __| | | |_  )   Release 8.0.0 "Harrier"                           |
|   \__ \ |_| |/ /                                                      |
|   |___/\___//___|   Suite (Computational Fluid Dynamics Code)         |
|                                                                       |
-------------------------------------------------------------------------
| SU2 Project Website: https://su2code.github.io                        |
|                                                                       |
| The SU2 Project is maintained by the SU2 Foundation                   |
| (http://su2foundation.org)                                            |
-------------------------------------------------------------------------
| Copyright 2012-2023, SU2 Contributors                                 |
|                                                                       |
| SU2 is free software; you can redistribute it and/or                  |
| modify it under the terms of the GNU Lesser General Public            |
| License as published by the Free Software Foundation; either          |
| version 2.1 of the License, or (at your option) any later version.    |
|                                                                       |
| SU2 is distributed in the hope that it will be useful,                |
| but WITHOUT ANY WARRANTY; without even the implied warranty of        |
| MERCHANTABILITY or FITNESS FOR A PARTICULAR PURPOSE. See the GNU      |
| Lesser General Public License for more details.                       |
|                                                                       |
| You should have received a copy of the GNU Lesser General Public      |
| License along with SU2. If not, see <http://www.gnu.org/licenses/>.   |
-------------------------------------------------------------------------

Parsing config file for zone 0

----------------- Physical Case Definition ( Zone 0 ) -------------------
Compressible RANS equations.
Turbulence model: Spalart-Allmaras-noft2
Hybrid RANS/LES: No Hybrid RANS/LES
Mach number: 0.734.
Angle of attack (AoA): 2.31 deg, and angle of sideslip (AoS): 0 deg.
Reynolds number: 6.5e+06. Reference length 1.
Fixed CL mode, target value: 0.824.
Reading and writing binary SU2 native restart files.
Read flow solution from: solution_flow.dat.
Dimensional simulation.
The reference area is 1 m^2.
The semi-span will be computed using the max y(3D) value.
The reference length is 1 m.
Reference origin for moment evaluation is (0.25, 0, 0).
Surface(s) where the force coefficients are evaluated: AIRFOIL.

Surface(s) plotted in the output file: AIRFOIL.
Surface(s) affected by the design variables: AIRFOIL.
Input mesh file name: mesh_RAE2822_turb_deform.su2

--------------- Space Numerical Integration ( Zone 0 ) ------------------
Jameson-Schmidt-Turkel scheme (2nd order in space) for the flow inviscid terms.
JST viscous coefficients (2nd & 4th): 0.5, 0.02.
The method includes a grid stretching correction (p = 0.3).
Scalar upwind solver for the turbulence model.
First order integration in space.
Average of gradients with correction (viscous flow terms).
Average of gradients with correction (viscous turbulence terms).
Gradient for viscous and source terms: inverse-distance weighted Least-Squares.

--------------- Time Numerical Integration  ( Zone 0 ) ------------------
Local time stepping (steady state simulation).
Euler implicit method for the flow equations.
FGMRES is used for solving the linear system.
Using a ILU(0) preconditioning.
Convergence criteria of the linear solver: 1e-06.
Max number of linear iterations: 10.
No CFL adaptation.
Courant-Friedrichs-Lewy number:       10
Euler implicit time integration for the turbulence model.

------------------ Convergence Criteria  ( Zone 0 ) ---------------------
Maximum number of solver subiterations: 5500.
Begin convergence monitoring at iteration 10.
Residual minimum value: 1e-12.
Cauchy series min. value: 1e-06.
Number of Cauchy elements: 100.
Begin windowed time average at iteration 0.

-------------------- Output Information ( Zone 0 ) ----------------------
File writing frequency: 
+------------------------------------+
|                     File| Frequency|
+------------------------------------+
|                  RESTART|     10000|
|                 PARAVIEW|     10000|
|         SURFACE_PARAVIEW|     10000|
|              SURFACE_CSV|     10000|
+------------------------------------+
Writing the convergence history file every 1 inner iterations.
Writing the screen convergence history every 1 inner iterations.
The tabular file format is CSV (.csv).
Convergence history file name: history_direct.
Forces breakdown file name: forces_breakdown.dat.
Surface file name: surface_flow.
Volume file name: flow.
Restart file name: restart_flow.dat.

------------- Config File Boundary Information ( Zone 0 ) ---------------
+-----------------------------------------------------------------------+
|                        Marker Type|                        Marker Name|
+-----------------------------------------------------------------------+
|                          Far-field|                           FARFIELD|
+-----------------------------------------------------------------------+
|                     Heat flux wall|                            AIRFOIL|
+-----------------------------------------------------------------------+

-------------------- Output Preprocessing ( Zone 0 ) --------------------

WARNING: SURFACE_PRESSURE_DROP can only be computed for at least 2 surfaces (outlet, inlet, ...)

Screen output fields: INNER_ITER, RMS_DENSITY, RMS_NU_TILDE, LIFT, DRAG
History output group(s): ITER, RMS_RES, AERO_COEFF
Convergence field(s): RMS_DENSITY
Warning: No (valid) fields chosen for time convergence monitoring. Time convergence monitoring inactive.
Volume output fields: COORDINATES, SOLUTION, PRIMITIVE

------------------- Geometry Preprocessing ( Zone 0 ) -------------------
Two dimensional problem.
13937 grid points before partitioning.
22842 volume elements before partitioning.
2 surface markers.
192 boundary elements in index 0 (Marker = AIRFOIL).
40 boundary elements in index 1 (Marker = FARFIELD).
Executing the partitioning functions.
Building the graph adjacency structure.
Calling ParMETIS... graph partitioning complete (831 edge cuts).
Distributing ParMETIS coloring.
Rebalancing vertices.
Rebalancing volume element connectivity.
Rebalancing markers and surface elements.
14875 vertices including ghost points. 
23674 interior elements including halo cells. 
18780 triangles.
4894 quadrilaterals.
Establishing MPI communication patterns.
Setting point connectivity.
Renumbering points (Reverse Cuthill McKee Ordering).
Recomputing point connectivity.
Setting element connectivity.
Checking the numerical grid orientation.
All volume elements are correctly orientend.
All surface elements are correctly orientend.
Identifying edges and vertices.
Setting the control volume structure.
Area of the computational grid: 32209.9.
Searching for the closest normal neighbors to the surfaces.
Storing a mapping from global to local point index.
Compute the surface curvature.
Max K: 164.047. Mean K: 7.49633. Standard deviation K: 22.4426.
Checking for periodicity.
Computing mesh quality statistics for the dual control volumes.
+--------------------------------------------------------------+
|           Mesh Quality Metric|        Minimum|        Maximum|
+--------------------------------------------------------------+
|    Orthogonality Angle (deg.)|        75.2698|        89.9993|
|     CV Face Area Aspect Ratio|        1.00179|        3358.44|
|           CV Sub-Volume Ratio|        1.00063|        1213.04|
+--------------------------------------------------------------+
Finding max control volume width.
Communicating number of neighbors.
Wetted area = 2.02262 m.
Area projection in the x-plane = 0.124454 m, y-plane = 0.995873 m.
Max. coordinate in the x-direction = 1 m, y-direction = 0.0629204 m.
Min. coordinate in the x-direction = 0 m, y-direction = -0.0596161 m.
Computing wall distances.

-------------------- Solver Preprocessing ( Zone 0 ) --------------------
WARNING: AoA in the solution file (2.78404 deg.) +
         AoA offset in mesh file (0 deg.) = 2.78404 deg.
WARNING: SU2 will use the dCD/dCL provided in the direct solution file: 0.0213249.
WARNING: SU2 will use the dCMz/dCL provided in the direct solution file: 0.0281766.
Viscous flow: Computing pressure using the ideal gas law
based on the free-stream temperature and a density computed
from the Reynolds number.
Force coefficients computed using free-stream values.

-- Models:
+------------------------------------------------------------------------------+
|          Viscosity Model|        Conductivity Model|              Fluid Model|
+------------------------------------------------------------------------------+
|               SUTHERLAND|          CONSTANT_PRANDTL|             STANDARD_AIR|
+------------------------------------------------------------------------------+
-- Fluid properties:
+------------------------------------------------------------------------------+
|                  Name|    Dim. value|    Ref. value|      Unit|Non-dim. value|
+------------------------------------------------------------------------------+
|        Ref. Viscosity|     1.716e-05|             1|   N.s/m^2|     1.716e-05|
|      Sutherland Temp.|        273.15|             1|         K|        273.15|
|     Sutherland Const.|         110.4|             1|         K|         110.4|
+------------------------------------------------------------------------------+
|        Prandtl (Lam.)|             -|             -|         -|          0.71|
|       Prandtl (Turb.)|             -|             -|         -|           0.9|
+------------------------------------------------------------------------------+
|          Gas Constant|       287.058|             1|  N.m/kg.K|       287.058|
|      Spec. Heat Ratio|             -|             -|         -|           1.4|
+------------------------------------------------------------------------------+
-- Initial and free-stream conditions:
+------------------------------------------------------------------------------+
|                  Name|    Dim. value|    Ref. value|      Unit|Non-dim. value|
+------------------------------------------------------------------------------+
|       Static Pressure|         38515|             1|        Pa|         38515|
|               Density|      0.465631|             1|    kg/m^3|      0.465631|
|           Temperature|        288.15|             1|         K|        288.15|
|          Total Energy|        237984|             1|   m^2/s^2|        237984|
|            Velocity-X|       249.483|             1|       m/s|       249.483|
|            Velocity-Y|       12.1321|             1|       m/s|       12.1321|
|    Velocity Magnitude|       249.778|             1|       m/s|       249.778|
+------------------------------------------------------------------------------+
|             Viscosity|    1.7893e-05|             1|   N.s/m^2|    1.7893e-05|
|          Conductivity|             -|             1|   W/m^2.K|             -|
|     Turb. Kin. Energy|       233.959|             1|   m^2/s^2|       233.959|
|     Spec. Dissipation|        608834|             1|       1/s|        608834|
+------------------------------------------------------------------------------+
|           Mach Number|             -|             -|         -|         0.734|
|       Reynolds Number|             -|             -|         -|       6.5e+06|
+------------------------------------------------------------------------------+
Initialize Jacobian structure (Navier-Stokes). MG level: 0.
Initialize Jacobian structure (SA model).

------------------- Numerics Preprocessing ( Zone 0 ) -------------------

----------------- Integration Preprocessing ( Zone 0 ) ------------------

------------------- Iteration Preprocessing ( Zone 0 ) ------------------
Euler/Navier-Stokes/RANS fluid iteration.

------------------------------ Begin Solver -----------------------------

Simulation Run using the Single-zone Driver
WARNING: SU2 was not compiled for an AVX-capable architecture. Performance could be better,
         see https://su2code.github.io/docs_v7/Build-SU2-Linux-MacOS/#compiler-optimizations
+----------------------------------------------------------------+
|  Inner_Iter|    rms[Rho]|     rms[nu]|          CL|          CD|
+----------------------------------------------------------------+
|           0|   -4.532716|   -5.756877|    0.824061|    0.011842|
|           1|   -4.591995|   -5.861219|    0.824062|    0.011810|
|           2|   -4.656566|   -5.976107|    0.824031|    0.011799|
|           3|   -4.708743|   -6.093852|    0.823986|    0.011798|
|           4|   -4.747449|   -6.207363|    0.823945|    0.011799|
|           5|   -4.773239|   -6.306791|    0.823913|    0.011799|
|           6|   -4.786998|   -6.378716|    0.823894|    0.011798|
|           7|   -4.791589|   -6.412488|    0.823887|    0.011795|
|           8|   -4.790525|   -6.411842|    0.823891|    0.011792|
|           9|   -4.785896|   -6.393935|    0.823904|    0.011792|
|          10|   -4.778200|   -6.374900|    0.823924|    0.011794|
|          11|   -4.767516|   -6.363183|    0.823950|    0.011799|
|          12|   -4.754419|   -6.361281|    0.823980|    0.011807|
|          13|   -4.740085|   -6.368244|    0.824011|    0.011818|
|          14|   -4.725934|   -6.380701|    0.824040|    0.011831|
|          15|   -4.713272|   -6.392922|    0.824066|    0.011845|
|          16|   -4.703061|   -6.397480|    0.824086|    0.011861|
|          17|   -4.695770|   -6.388490|    0.824100|    0.011877|
|          18|   -4.691316|   -6.365942|    0.824106|    0.011892|
|          19|   -4.689108|   -6.335785|    0.824104|    0.011907|
|          20|   -4.688228|   -6.305627|    0.824095|    0.011921|
|          21|   -4.687714|   -6.281161|    0.824081|    0.011934|
|          22|   -4.686852|   -6.265393|    0.824062|    0.011945|
|          23|   -4.685339|   -6.259274|    0.824040|    0.011955|
|          24|   -4.683261|   -6.262413|    0.824017|    0.011963|
|          25|   -4.680908|   -6.273509|    0.823993|    0.011970|
|          26|   -4.678574|   -6.290568|    0.823971|    0.011976|
|          27|   -4.676423|   -6.311015|    0.823950|    0.011981|
|          28|   -4.674469|   -6.331939|    0.823931|    0.011986|
|          29|   -4.672620|   -6.350550|    0.823915|    0.011990|
|          30|   -4.670760|   -6.364838|    0.823902|    0.011994|
|          31|   -4.668805|   -6.374081|    0.823890|    0.011997|
|          32|   -4.666729|   -6.378860|    0.823880|    0.012001|
|          33|   -4.664552|   -6.380560|    0.823872|    0.012004|
|          34|   -4.662322|   -6.380712|    0.823863|    0.012008|
|          35|   -4.660086|   -6.380511|    0.823855|    0.012011|
|          36|   -4.657882|   -6.380619|    0.823846|    0.012014|
|          37|   -4.655733|   -6.381187|    0.823837|    0.012017|
|          38|   -4.653653|   -6.381987|    0.823825|    0.012020|
|          39|   -4.651646|   -6.382586|    0.823813|    0.012023|
|          40|   -4.649715|   -6.382526|    0.823798|    0.012026|
|          41|   -4.647862|   -6.381472|    0.823781|    0.012028|
|          42|   -4.646090|   -6.379319|    0.823763|    0.012031|
|          43|   -4.644399|   -6.376214|    0.823743|    0.012033|
|          44|   -4.642784|   -6.372509|    0.823722|    0.012035|
|          45|   -4.641234|   -6.368673|    0.823699|    0.012037|
|          46|   -4.639731|   -6.365198|    0.823675|    0.012039|
|          47|   -4.638251|   -6.362509|    0.823651|    0.012040|
|          48|   -4.636766|   -6.360917|    0.823627|    0.012041|
|          49|   -4.635246|   -6.360595|    0.823603|    0.012042|
|          50|   -4.633671|   -6.361580|    0.823579|    0.012042|
|          51|   -4.632028|   -6.363792|    0.823556|    0.012043|
|          52|   -4.630320|   -6.367063|    0.823534|    0.012042|
|          53|   -4.628565|   -6.371166|    0.823513|    0.012042|
|          54|   -4.626801|   -6.375847|    0.823493|    0.012041|
|          55|   -4.625074|   -6.380858|    0.823475|    0.012041|
|          56|   -4.623443|   -6.385976|    0.823458|    0.012039|
|          57|   -4.621964|   -6.391022|    0.823442|    0.012038|
|          58|   -4.620687|   -6.395864|    0.823428|    0.012036|
|          59|   -4.619651|   -6.400417|    0.823415|    0.012034|
|          60|   -4.618877|   -6.404636|    0.823403|    0.012032|
|          61|   -4.618368|   -6.408512|    0.823393|    0.012029|
|          62|   -4.618111|   -6.412057|    0.823383|    0.012026|
|          63|   -4.618081|   -6.415307|    0.823373|    0.012024|
|          64|   -4.618247|   -6.418316|    0.823365|    0.012020|
|          65|   -4.618580|   -6.421151|    0.823357|    0.012017|
|          66|   -4.619055|   -6.423924|    0.823350|    0.012014|
|          67|   -4.619656|   -6.426671|    0.823344|    0.012010|
|          68|   -4.620380|   -6.429453|    0.823338|    0.012007|
|          69|   -4.621231|   -6.432319|    0.823332|    0.012004|
|          70|   -4.622219|   -6.435297|    0.823327|    0.012000|
|          71|   -4.623354|   -6.438393|    0.823323|    0.011997|
|          72|   -4.624645|   -6.441598|    0.823319|    0.011993|
|          73|   -4.626093|   -6.444891|    0.823316|    0.011990|
|          74|   -4.627694|   -6.448254|    0.823313|    0.011987|
|          75|   -4.629437|   -6.451678|    0.823311|    0.011984|
|          76|   -4.631309|   -6.455165|    0.823309|    0.011981|
|          77|   -4.633298|   -6.458736|    0.823308|    0.011978|
|          78|   -4.635396|   -6.462424|    0.823306|    0.011976|
|          79|   -4.637603|   -6.466275|    0.823305|    0.011973|
|          80|   -4.639924|   -6.470334|    0.823304|    0.011971|
|          81|   -4.642372|   -6.474643|    0.823303|    0.011969|
|          82|   -4.644964|   -6.479227|    0.823302|    0.011966|
|          83|   -4.647717|   -6.484101|    0.823300|    0.011964|
|          84|   -4.650639|   -6.489267|    0.823299|    0.011962|
|          85|   -4.653734|   -6.494705|    0.823297|    0.011960|
|          86|   -4.656989|   -6.500386|    0.823295|    0.011958|
|          87|   -4.660381|   -6.506268|    0.823293|    0.011956|
|          88|   -4.663872|   -6.512301|    0.823291|    0.011954|
|          89|   -4.667413|   -6.518433|    0.823289|    0.011952|
|          90|   -4.670948|   -6.524610|    0.823287|    0.011950|
|          91|   -4.674417|   -6.530782|    0.823285|    0.011948|
|          92|   -4.677762|   -6.536905|    0.823283|    0.011946|
|          93|   -4.680935|   -6.542940|    0.823281|    0.011945|
|          94|   -4.683893|   -6.548859|    0.823279|    0.011943|
|          95|   -4.686612|   -6.554638|    0.823278|    0.011941|
|          96|   -4.689081|   -6.560265|    0.823278|    0.011940|
|          97|   -4.691302|   -6.565729|    0.823278|    0.011939|
|          98|   -4.693295|   -6.571027|    0.823278|    0.011937|
|          99|   -4.695089|   -6.576156|    0.823279|    0.011937|
|         100|   -4.696724|   -6.581112|    0.823281|    0.011936|
|         101|   -4.698245|   -6.585893|    0.823283|    0.011987|
+-----------------------------------------------------------------------+
|Fixed CL Mode                           |Value                         |
+-----------------------------------------------------------------------+
|Current CL                              |0.823283                      |
|Target CL                               |0.824                         |
|Previous AOA                            |2.78404                       |
|Changed AoA by                          |0.00359518                    |
+-----------------------------------------------------------------------+
+----------------------------------------------------------------+
|  Inner_Iter|    rms[Rho]|     rms[nu]|          CL|          CD|
+----------------------------------------------------------------+
|         102|   -2.637660|   -6.503031|    0.823285|    0.011987|
|         103|   -3.022522|   -6.547502|    0.823289|    0.011987|
|         104|   -3.268216|   -6.564348|    0.823293|    0.011987|
|         105|   -3.348370|   -6.575255|    0.823297|    0.011987|
|         106|   -3.402736|   -6.583919|    0.823302|    0.011988|
|         107|   -3.473023|   -6.591466|    0.823307|    0.011989|
|         108|   -3.559846|   -6.597880|    0.823313|    0.011990|
|         109|   -3.650208|   -6.603412|    0.823318|    0.011992|
|         110|   -3.727107|   -6.608196|    0.823324|    0.011994|
|         111|   -3.782039|   -6.612239|    0.823330|    0.011995|
|         112|   -3.817118|   -6.615620|    0.823335|    0.011998|
|         113|   -3.836808|   -6.618522|    0.823340|    0.012000|
|         114|   -3.845345|   -6.621151|    0.823345|    0.012002|
|         115|   -3.848617|   -6.623673|    0.823350|    0.012005|
|         116|   -3.853042|   -6.626152|    0.823354|    0.012007|
|         117|   -3.862851|   -6.628597|    0.823358|    0.012010|
|         118|   -3.878960|   -6.631013|    0.823361|    0.012013|
|         119|   -3.899525|   -6.633446|    0.823364|    0.012016|
|         120|   -3.921387|   -6.635945|    0.823367|    0.012018|
|         121|   -3.941873|   -6.638563|    0.823369|    0.012021|
|         122|   -3.960092|   -6.641320|    0.823371|    0.012024|
|         123|   -3.976877|   -6.644212|    0.823372|    0.012027|
|         124|   -3.993643|   -6.647227|    0.823373|    0.012030|
|         125|   -4.011283|   -6.650322|    0.823374|    0.012033|
|         126|   -4.029782|   -6.653480|    0.823374|    0.012036|
|         127|   -4.048428|   -6.656693|    0.823375|    0.012039|
|         128|   -4.066229|   -6.659960|    0.823375|    0.012042|
|         129|   -4.082253|   -6.663287|    0.823375|    0.012044|
|         130|   -4.095820|   -6.666700|    0.823376|    0.012047|
|         131|   -4.106639|   -6.670252|    0.823376|    0.012050|
|         132|   -4.114909|   -6.673987|    0.823377|    0.012053|
|         133|   -4.121325|   -6.677924|    0.823378|    0.012057|
|         134|   -4.126918|   -6.682084|    0.823379|    0.012060|
|         135|   -4.132791|   -6.686473|    0.823381|    0.012063|
|         136|   -4.139862|   -6.691104|    0.823383|    0.012066|
|         137|   -4.148699|   -6.695941|    0.823385|    0.012070|
|         138|   -4.159455|   -6.700945|    0.823389|    0.012073|
|         139|   -4.171868|   -6.706093|    0.823392|    0.012077|
|         140|   -4.185301|   -6.711364|    0.823396|    0.012080|
|         141|   -4.198845|   -6.716734|    0.823401|    0.012084|
|         142|   -4.211485|   -6.722145|    0.823406|    0.012088|
|         143|   -4.222358|   -6.727573|    0.823412|    0.012092|
|         144|   -4.231011|   -6.732959|    0.823419|    0.012096|
|         145|   -4.237541|   -6.738303|    0.823427|    0.012099|
|         146|   -4.242550|   -6.743565|    0.823435|    0.012103|
|         147|   -4.246924|   -6.748689|    0.823443|    0.012107|
|         148|   -4.251565|   -6.753635|    0.823453|    0.012111|
|         149|   -4.257171|   -6.758353|    0.823464|    0.012115|
|         150|   -4.264133|   -6.762823|    0.823475|    0.012119|
|         151|   -4.272512|   -6.767006|    0.823487|    0.012123|
|         152|   -4.282089|   -6.770894|    0.823500|    0.012127|
|         153|   -4.292455|   -6.774470|    0.823514|    0.012131|
|         154|   -4.303114|   -6.777718|    0.823529|    0.012135|
|         155|   -4.313600|   -6.780633|    0.823545|    0.012139|
|         156|   -4.323564|   -6.783227|    0.823563|    0.012143|
|         157|   -4.332831|   -6.785527|    0.823581|    0.012146|
|         158|   -4.341406|   -6.787574|    0.823600|    0.012150|
|         159|   -4.349434|   -6.789401|    0.823620|    0.012154|
|         160|   -4.357135|   -6.791068|    0.823641|    0.012157|
|         161|   -4.364742|   -6.792629|    0.823663|    0.012160|
|         162|   -4.372447|   -6.794150|    0.823685|    0.012164|
|         163|   -4.380377|   -6.795683|    0.823709|    0.012167|
|         164|   -4.388590|   -6.797274|    0.823732|    0.012170|
|         165|   -4.397088|   -6.798959|    0.823757|    0.012173|
|         166|   -4.405836|   -6.800773|    0.823782|    0.012175|
|         167|   -4.414782|   -6.802732|    0.823807|    0.012178|
|         168|   -4.423878|   -6.804846|    0.823832|    0.012181|
|         169|   -4.433081|   -6.807104|    0.823857|    0.012183|
|         170|   -4.442359|   -6.809482|    0.823882|    0.012185|
|         171|   -4.451691|   -6.811951|    0.823906|    0.012187|
|         172|   -4.461053|   -6.814456|    0.823930|    0.012189|
|         173|   -4.470418|   -6.816920|    0.823953|    0.012191|
|         174|   -4.479750|   -6.819245|    0.823975|    0.012192|
|         175|   -4.488999|   -6.821322|    0.823996|    0.012193|
|         176|   -4.498106|   -6.823030|    0.824016|    0.012195|
|         177|   -4.507000|   -6.824245|    0.824035|    0.012195|
|         178|   -4.515605|   -6.824847|    0.824052|    0.012196|
|         179|   -4.523844|   -6.824737|    0.824067|    0.012197|
|         180|   -4.531639|   -6.823843|    0.824080|    0.012197|
|         181|   -4.538919|   -6.822129|    0.824092|    0.012197|
|         182|   -4.545621|   -6.819587|    0.824102|    0.012197|
|         183|   -4.551692|   -6.816245|    0.824110|    0.012197|
|         184|   -4.557093|   -6.812176|    0.824116|    0.012196|
|         185|   -4.561805|   -6.807481|    0.824120|    0.012196|
|         186|   -4.565822|   -6.802289|    0.824123|    0.012195|
|         187|   -4.569162|   -6.796745|    0.824123|    0.012194|
|         188|   -4.571860|   -6.791005|    0.824122|    0.012192|
|         189|   -4.573969|   -6.785225|    0.824119|    0.012191|
|         190|   -4.575561|   -6.779552|    0.824115|    0.012190|
|         191|   -4.576715|   -6.774114|    0.824108|    0.012188|
|         192|   -4.577525|   -6.769033|    0.824101|    0.012186|
|         193|   -4.578085|   -6.764413|    0.824092|    0.012184|
|         194|   -4.578492|   -6.760336|    0.824082|    0.012182|
|         195|   -4.578842|   -6.756876|    0.824070|    0.012180|
|         196|   -4.579224|   -6.754069|    0.824058|    0.012177|
|         197|   -4.579721|   -6.751944|    0.824045|    0.012175|
|         198|   -4.580409|   -6.750509|    0.824032|    0.012172|
|         199|   -4.581355|   -6.749757|    0.824017|    0.012170|
|         200|   -4.582616|   -6.749669|    0.824002|    0.012167|
|         201|   -4.584238|   -6.750206|    0.823987|    0.012164|
+-----------------------------------------------------------------------+
|Fixed CL Mode                           |Value                         |
+-----------------------------------------------------------------------+
|Current CL                              |0.823987                      |
|Target CL                               |0.824                         |
|Previous AOA                            |2.78764                       |
|Changed AoA by                          |-1.21335e-05                  |
+-----------------------------------------------------------------------+
+----------------------------------------------------------------+
|  Inner_Iter|    rms[Rho]|     rms[nu]|          CL|          CD|
+----------------------------------------------------------------+
|         202|   -4.568463|   -6.751324|    0.823972|    0.012161|
|         203|   -4.588699|   -6.752951|    0.823956|    0.012159|
|         204|   -4.594470|   -6.755004|    0.823941|    0.012156|
|         205|   -4.597770|   -6.757391|    0.823926|    0.012153|
|         206|   -4.601009|   -6.760013|    0.823910|    0.012150|
|         207|   -4.604697|   -6.762765|    0.823895|    0.012147|
|         208|   -4.608916|   -6.765541|    0.823881|    0.012144|
|         209|   -4.613616|   -6.768234|    0.823867|    0.012141|
|         210|   -4.618733|   -6.770742|    0.823854|    0.012139|
|         211|   -4.624212|   -6.772968|    0.823841|    0.012136|
|         212|   -4.630008|   -6.774831|    0.823829|    0.012133|
|         213|   -4.636071|   -6.776265|    0.823817|    0.012131|
|         214|   -4.642342|   -6.777222|    0.823807|    0.012128|
|         215|   -4.648753|   -6.777658|    0.823797|    0.012126|
|         216|   -4.655221|   -6.777564|    0.823788|    0.012123|
|         217|   -4.661658|   -6.776960|    0.823781|    0.012121|
|         218|   -4.667967|   -6.775889|    0.823774|    0.012119|
|         219|   -4.674058|   -6.774399|    0.823768|    0.012117|
|         220|   -4.679848|   -6.772558|    0.823764|    0.012115|
|         221|   -4.685273|   -6.770435|    0.823761|    0.012113|
|         222|   -4.690289|   -6.768110|    0.823758|    0.012111|
|         223|   -4.694870|   -6.765656|    0.823757|    0.012109|
|         224|   -4.699012|   -6.763144|    0.823757|    0.012108|
|         225|   -4.702729|   -6.760648|    0.823758|    0.012107|
|         226|   -4.706047|   -6.758234|    0.823760|    0.012106|
|         227|   -4.709001|   -6.755966|    0.823764|    0.012105|
|         228|   -4.711637|   -6.753899|    0.823768|    0.012104|
|         229|   -4.714004|   -6.752085|    0.823773|    0.012103|
|         230|   -4.716155|   -6.750560|    0.823780|    0.012102|
|         231|   -4.718146|   -6.749353|    0.823787|    0.012102|
|         232|   -4.720037|   -6.748486|    0.823795|    0.012102|
|         233|   -4.721884|   -6.747972|    0.823804|    0.012101|
|         234|   -4.723746|   -6.747818|    0.823814|    0.012101|
|         235|   -4.725676|   -6.748021|    0.823825|    0.012101|
|         236|   -4.727724|   -6.748574|    0.823836|    0.012102|
|         237|   -4.729934|   -6.749467|    0.823848|    0.012102|
|         238|   -4.732344|   -6.750683|    0.823861|    0.012102|
|         239|   -4.734982|   -6.752201|    0.823874|    0.012103|
|         240|   -4.737869|   -6.753999|    0.823887|    0.012104|
|         241|   -4.741016|   -6.756052|    0.823901|    0.012104|
|         242|   -4.744428|   -6.758336|    0.823915|    0.012105|
|         243|   -4.748104|   -6.760822|    0.823929|    0.012106|
|         244|   -4.752035|   -6.763480|    0.823943|    0.012107|
|         245|   -4.756208|   -6.766285|    0.823957|    0.012108|
|         246|   -4.760608|   -6.769212|    0.823971|    0.012109|
|         247|   -4.765215|   -6.772240|    0.823984|    0.012111|
|         248|   -4.770010|   -6.775351|    0.823998|    0.012112|
|         249|   -4.774972|   -6.778516|    0.824011|    0.012113|
|         250|   -4.780077|   -6.781719|    0.824024|    0.012114|
|         251|   -4.785305|   -6.784948|    0.824037|    0.012115|
|         252|   -4.790632|   -6.788198|    0.824049|    0.012117|
|         253|   -4.796037|   -6.791464|    0.824060|    0.012118|
|         254|   -4.801500|   -6.794747|    0.824071|    0.012119|
|         255|   -4.806999|   -6.798049|    0.824081|    0.012120|
|         256|   -4.812514|   -6.801372|    0.824091|    0.012121|
|         257|   -4.818026|   -6.804724|    0.824100|    0.012122|
|         258|   -4.823512|   -6.808113|    0.824109|    0.012124|
|         259|   -4.828953|   -6.811541|    0.824117|    0.012125|
|         260|   -4.834325|   -6.815013|    0.824124|    0.012126|
|         261|   -4.839605|   -6.818531|    0.824130|    0.012126|
|         262|   -4.844768|   -6.822096|    0.824136|    0.012127|
|         263|   -4.849786|   -6.825713|    0.824142|    0.012128|
|         264|   -4.854629|   -6.829383|    0.824147|    0.012129|
|         265|   -4.859265|   -6.833102|    0.824151|    0.012130|
|         266|   -4.863660|   -6.836863|    0.824155|    0.012130|
|         267|   -4.867779|   -6.840660|    0.824159|    0.012131|
|         268|   -4.871586|   -6.844485|    0.824162|    0.012132|
|         269|   -4.875046|   -6.848330|    0.824164|    0.012132|
|         270|   -4.878122|   -6.852196|    0.824167|    0.012133|
|         271|   -4.880784|   -6.856076|    0.824169|    0.012133|
|         272|   -4.883003|   -6.859966|    0.824171|    0.012133|
|         273|   -4.884756|   -6.863863|    0.824173|    0.012134|
|         274|   -4.886027|   -6.867770|    0.824175|    0.012134|
|         275|   -4.886806|   -6.871692|    0.824176|    0.012134|
|         276|   -4.887092|   -6.875637|    0.824178|    0.012135|
|         277|   -4.886893|   -6.879616|    0.824179|    0.012135|
|         278|   -4.886226|   -6.883645|    0.824180|    0.012135|
|         279|   -4.885115|   -6.887741|    0.824182|    0.012135|
|         280|   -4.883592|   -6.891924|    0.824183|    0.012135|
|         281|   -4.881695|   -6.896215|    0.824185|    0.012136|
|         282|   -4.879468|   -6.900637|    0.824186|    0.012136|
|         283|   -4.876958|   -6.905212|    0.824188|    0.012136|
|         284|   -4.874212|   -6.909959|    0.824190|    0.012136|
|         285|   -4.871281|   -6.914897|    0.824191|    0.012136|
|         286|   -4.868214|   -6.920040|    0.824193|    0.012136|
|         287|   -4.865060|   -6.925398|    0.824195|    0.012136|
|         288|   -4.861864|   -6.930979|    0.824196|    0.012136|
|         289|   -4.858670|   -6.936783|    0.824198|    0.012136|
|         290|   -4.855517|   -6.942805|    0.824200|    0.012136|
|         291|   -4.852441|   -6.949033|    0.824201|    0.012136|
|         292|   -4.849473|   -6.955449|    0.824203|    0.012136|
|         293|   -4.846641|   -6.962030|    0.824205|    0.012136|
|         294|   -4.843969|   -6.968744|    0.824206|    0.012136|
|         295|   -4.841478|   -6.975556|    0.824207|    0.012136|
|         296|   -4.839186|   -6.982427|    0.824209|    0.012136|
|         297|   -4.837107|   -6.989314|    0.824210|    0.012135|
|         298|   -4.835251|   -6.996173|    0.824211|    0.012135|
|         299|   -4.833629|   -7.002959|    0.824212|    0.012135|
|         300|   -4.832247|   -7.009626|    0.824212|    0.012135|
|         301|   -4.831110|   -7.016130|    0.824213|    0.012119|
+-----------------------------------------------------------------------+
|Fixed CL Mode                           |Value                         |
+-----------------------------------------------------------------------+
|Current CL                              |0.824213                      |
|Target CL                               |0.824                         |
|Previous AOA                            |2.78763                       |
|Changed AoA by                          |-0.00106151                   |
+-----------------------------------------------------------------------+
+----------------------------------------------------------------+
|  Inner_Iter|    rms[Rho]|     rms[nu]|          CL|          CD|
+----------------------------------------------------------------+
|         302|   -3.167341|   -6.962218|    0.824214|    0.012118|
|         303|   -3.551916|   -6.996466|    0.824214|    0.012118|
|         304|   -3.797167|   -7.011002|    0.824214|    0.012117|
|         305|   -3.877004|   -7.021176|    0.824214|    0.012117|
|         306|   -3.930782|   -7.029543|    0.824214|    0.012116|
|         307|   -3.999932|   -7.036702|    0.824214|    0.012115|
|         308|   -4.084737|   -7.042850|    0.824214|    0.012115|
|         309|   -4.171928|   -7.048117|    0.824214|    0.012114|
|         310|   -4.244832|   -7.052587|    0.824214|    0.012113|
|         311|   -4.295873|   -7.056306|    0.824213|    0.012112|
|         312|   -4.327890|   -7.059326|    0.824213|    0.012111|
|         313|   -4.345646|   -7.061767|    0.824213|    0.012110|
|         314|   -4.353332|   -7.063787|    0.824213|    0.012109|
|         315|   -4.356380|   -7.065512|    0.824213|    0.012108|
|         316|   -4.360582|   -7.066997|    0.824213|    0.012107|
|         317|   -4.369715|   -7.068259|    0.824213|    0.012106|
|         318|   -4.384525|   -7.069309|    0.824213|    0.012105|
|         319|   -4.403249|   -7.070177|    0.824213|    0.012104|
|         320|   -4.422991|   -7.070907|    0.824214|    0.012103|
|         321|   -4.441381|   -7.071539|    0.824215|    0.012102|
|         322|   -4.457683|   -7.072100|    0.824215|    0.012101|
|         323|   -4.472671|   -7.072604|    0.824216|    0.012100|
|         324|   -4.487588|   -7.073066|    0.824217|    0.012099|
|         325|   -4.503195|   -7.073507|    0.824219|    0.012098|
|         326|   -4.519461|   -7.073957|    0.824220|    0.012097|
|         327|   -4.535778|   -7.074456|    0.824222|    0.012096|
|         328|   -4.551324|   -7.075052|    0.824224|    0.012095|
|         329|   -4.565353|   -7.075793|    0.824225|    0.012094|
|         330|   -4.577344|   -7.076722|    0.824227|    0.012094|
|         331|   -4.587092|   -7.077876|    0.824229|    0.012093|
|         332|   -4.594778|   -7.079283|    0.824232|    0.012092|
|         333|   -4.600963|   -7.080959|    0.824234|    0.012092|
|         334|   -4.606472|   -7.082908|    0.824236|    0.012091|
|         335|   -4.612184|   -7.085121|    0.824238|    0.012091|
|         336|   -4.618828|   -7.087580|    0.824241|    0.012090|
|         337|   -4.626846|   -7.090256|    0.824243|    0.012090|
|         338|   -4.636339|   -7.093111|    0.824245|    0.012089|
|         339|   -4.647066|   -7.096112|    0.824247|    0.012089|
|         340|   -4.658493|   -7.099211|    0.824249|    0.012089|
|         341|   -4.669882|   -7.102361|    0.824251|    0.012089|
|         342|   -4.680438|   -7.105516|    0.824253|    0.012089|
|         343|   -4.689510|   -7.108635|    0.824254|    0.012089|
|         344|   -4.696766|   -7.111680|    0.824255|    0.012089|
|         345|   -4.702289|   -7.114622|    0.824256|    0.012089|
|         346|   -4.706528|   -7.117434|    0.824257|    0.012089|
|         347|   -4.710136|   -7.120098|    0.824258|    0.012089|
|         348|   -4.713768|   -7.122600|    0.824258|    0.012089|
|         349|   -4.717928|   -7.124933|    0.824258|    0.012089|
|         350|   -4.722879|   -7.127097|    0.824257|    0.012089|
|         351|   -4.728636|   -7.129107|    0.824257|    0.012090|
|         352|   -4.735010|   -7.130968|    0.824255|    0.012090|
|         353|   -4.741684|   -7.132701|    0.824254|    0.012090|
|         354|   -4.748303|   -7.134334|    0.824252|    0.012091|
|         355|   -4.754559|   -7.135890|    0.824249|    0.012091|
|         356|   -4.760247|   -7.137397|    0.824247|    0.012091|
|         357|   -4.765298|   -7.138891|    0.824243|    0.012092|
|         358|   -4.769765|   -7.140405|    0.824240|    0.012092|
|         359|   -4.773787|   -7.141976|    0.824236|    0.012092|
|         360|   -4.777547|   -7.143640|    0.824231|    0.012093|
|         361|   -4.781220|   -7.145430|    0.824227|    0.012093|
|         362|   -4.784952|   -7.147380|    0.824221|    0.012094|
|         363|   -4.788842|   -7.149520|    0.824216|    0.012094|
|         364|   -4.792947|   -7.151875|    0.824210|    0.012094|
|         365|   -4.797290|   -7.154465|    0.824204|    0.012094|
|         366|   -4.801875|   -7.157304|    0.824198|    0.012095|
|         367|   -4.806701|   -7.160398|    0.824192|    0.012095|
|         368|   -4.811766|   -7.163745|    0.824186|    0.012095|
|         369|   -4.817077|   -7.167332|    0.824179|    0.012095|
|         370|   -4.822644|   -7.171138|    0.824173|    0.012096|
|         371|   -4.828480|   -7.175135|    0.824166|    0.012096|
|         372|   -4.834599|   -7.179285|    0.824160|    0.012096|
|         373|   -4.841009|   -7.183540|    0.824154|    0.012096|
|         374|   -4.847711|   -7.187849|    0.824148|    0.012096|
|         375|   -4.854700|   -7.192151|    0.824142|    0.012097|
|         376|   -4.861963|   -7.196383|    0.824137|    0.012097|
|         377|   -4.869480|   -7.200477|    0.824131|    0.012097|
|         378|   -4.877227|   -7.204361|    0.824127|    0.012097|
|         379|   -4.885174|   -7.207973|    0.824122|    0.012097|
|         380|   -4.893289|   -7.211261|    0.824118|    0.012097|
|         381|   -4.901534|   -7.214174|    0.824115|    0.012097|
|         382|   -4.909871|   -7.216679|    0.824112|    0.012097|
|         383|   -4.918256|   -7.218752|    0.824109|    0.012097|
|         384|   -4.926644|   -7.220386|    0.824107|    0.012097|
|         385|   -4.934984|   -7.221592|    0.824106|    0.012097|
|         386|   -4.943227|   -7.222395|    0.824105|    0.012097|
|         387|   -4.951317|   -7.222832|    0.824104|    0.012097|
|         388|   -4.959201|   -7.222956|    0.824104|    0.012097|
|         389|   -4.966825|   -7.222822|    0.824104|    0.012097|
|         390|   -4.974135|   -7.222501|    0.824105|    0.012097|
|         391|   -4.981082|   -7.222070|    0.824106|    0.012096|
|         392|   -4.987620|   -7.221608|    0.824107|    0.012096|
|         393|   -4.993705|   -7.221191|    0.824109|    0.012096|
|         394|   -4.999302|   -7.220890|    0.824111|    0.012096|
|         395|   -5.004380|   -7.220769|    0.824113|    0.012095|
|         396|   -5.008919|   -7.220885|    0.824116|    0.012095|
|         397|   -5.012904|   -7.221284|    0.824119|    0.012095|
|         398|   -5.016328|   -7.222002|    0.824122|    0.012094|
|         399|   -5.019195|   -7.223068|    0.824125|    0.012094|
|         400|   -5.021515|   -7.224503|    0.824128|    0.012094|
|         401|   -5.023307|   -7.226318|    0.824132|    0.012084|
+-----------------------------------------------------------------------+
|Fixed CL Mode                           |Value                         |
+-----------------------------------------------------------------------+
|Current CL                              |0.824132                      |
|Target CL                               |0.824                         |
|Previous AOA                            |2.78656                       |
|Changed AoA by                          |-0.000641338                  |
+-----------------------------------------------------------------------+
+----------------------------------------------------------------+
|  Inner_Iter|    rms[Rho]|     rms[nu]|          CL|          CD|
+----------------------------------------------------------------+
|         402|   -3.386158|   -7.170757|    0.824136|    0.012084|
|         403|   -3.769404|   -7.200671|    0.824139|    0.012083|
|         404|   -4.010290|   -7.212219|    0.824143|    0.012083|
|         405|   -4.087640|   -7.220217|    0.824147|    0.012082|
|         406|   -4.140678|   -7.227085|    0.824151|    0.012082|
|         407|   -4.209307|   -7.233394|    0.824155|    0.012081|
|         408|   -4.293605|   -7.239325|    0.824159|    0.012081|
|         409|   -4.380903|   -7.244981|    0.824163|    0.012080|
|         410|   -4.455424|   -7.250417|    0.824167|    0.012080|
|         411|   -4.509675|   -7.255625|    0.824171|    0.012080|
|         412|   -4.545575|   -7.260591|    0.824174|    0.012079|
|         413|   -4.566818|   -7.265352|    0.824178|    0.012079|
|         414|   -4.576885|   -7.269979|    0.824182|    0.012078|
|         415|   -4.581054|   -7.274516|    0.824185|    0.012078|
|         416|   -4.585401|   -7.278956|    0.824189|    0.012078|
|         417|   -4.594082|   -7.283260|    0.824192|    0.012077|
|         418|   -4.608122|   -7.287393|    0.824195|    0.012077|
|         419|   -4.625949|   -7.291347|    0.824198|    0.012077|
|         420|   -4.644843|   -7.295133|    0.824200|    0.012076|
|         421|   -4.662603|   -7.298762|    0.824203|    0.012076|
|         422|   -4.678612|   -7.302227|    0.824205|    0.012076|
|         423|   -4.693652|   -7.305504|    0.824207|    0.012076|
|         424|   -4.708867|   -7.308567|    0.824209|    0.012075|
|         425|   -4.724849|   -7.311386|    0.824211|    0.012075|
|         426|   -4.741374|   -7.313947|    0.824212|    0.012075|
|         427|   -4.757647|   -7.316240|    0.824214|    0.012075|
|         428|   -4.772725|   -7.318280|    0.824215|    0.012075|
|         429|   -4.785833|   -7.320089|    0.824215|    0.012075|
|         430|   -4.796539|   -7.321696|    0.824216|    0.012074|
|         431|   -4.804814|   -7.323139|    0.824216|    0.012074|
|         432|   -4.811048|   -7.324454|    0.824217|    0.012074|
|         433|   -4.815981|   -7.325679|    0.824217|    0.012074|
|         434|   -4.820538|   -7.326847|    0.824216|    0.012074|
|         435|   -4.825622|   -7.327978|    0.824216|    0.012074|
|         436|   -4.831928|   -7.329097|    0.824215|    0.012074|
|         437|   -4.839831|   -7.330227|    0.824215|    0.012075|
|         438|   -4.849364|   -7.331386|    0.824214|    0.012075|
|         439|   -4.860230|   -7.332587|    0.824213|    0.012075|
|         440|   -4.871860|   -7.333844|    0.824212|    0.012075|
|         441|   -4.883506|   -7.335170|    0.824210|    0.012075|
|         442|   -4.894391|   -7.336576|    0.824209|    0.012075|
|         443|   -4.903897|   -7.338081|    0.824207|    0.012076|
|         444|   -4.911731|   -7.339700|    0.824206|    0.012076|
|         445|   -4.918010|   -7.341455|    0.824204|    0.012076|
|         446|   -4.923207|   -7.343360|    0.824202|    0.012077|
|         447|   -4.927989|   -7.345430|    0.824200|    0.012077|
|         448|   -4.933027|   -7.347675|    0.824199|    0.012077|
|         449|   -4.938839|   -7.350102|    0.824196|    0.012078|
|         450|   -4.945706|   -7.352711|    0.824194|    0.012078|
|         451|   -4.953664|   -7.355494|    0.824192|    0.012079|
|         452|   -4.962538|   -7.358442|    0.824190|    0.012079|
|         453|   -4.972013|   -7.361539|    0.824187|    0.012080|
|         454|   -4.981718|   -7.364767|    0.824185|    0.012080|
|         455|   -4.991311|   -7.368087|    0.824182|    0.012081|
|         456|   -5.000540|   -7.371466|    0.824180|    0.012081|
|         457|   -5.009282|   -7.374867|    0.824177|    0.012082|
|         458|   -5.017540|   -7.378253|    0.824174|    0.012082|
|         459|   -5.025413|   -7.381584|    0.824171|    0.012083|
|         460|   -5.033049|   -7.384830|    0.824167|    0.012084|
|         461|   -5.040599|   -7.387964|    0.824164|    0.012084|
|         462|   -5.048183|   -7.390966|    0.824160|    0.012085|
|         463|   -5.055870|   -7.393825|    0.824157|    0.012085|
|         464|   -5.063679|   -7.396544|    0.824153|    0.012086|
|         465|   -5.071590|   -7.399136|    0.824149|    0.012087|
|         466|   -5.079557|   -7.401627|    0.824145|    0.012087|
|         467|   -5.087524|   -7.404056|    0.824141|    0.012088|
|         468|   -5.095439|   -7.406472|    0.824137|    0.012088|
|         469|   -5.103259|   -7.408935|    0.824133|    0.012089|
|         470|   -5.110953|   -7.411510|    0.824129|    0.012089|
|         471|   -5.118498|   -7.414268|    0.824125|    0.012090|
|         472|   -5.125876|   -7.417277|    0.824121|    0.012090|
|         473|   -5.133070|   -7.420604|    0.824117|    0.012091|
|         474|   -5.140062|   -7.424316|    0.824113|    0.012091|
|         475|   -5.146829|   -7.428463|    0.824110|    0.012092|
|         476|   -5.153351|   -7.433091|    0.824106|    0.012092|
|         477|   -5.159609|   -7.438233|    0.824102|    0.012093|
|         478|   -5.165585|   -7.443904|    0.824099|    0.012093|
|         479|   -5.171272|   -7.450102|    0.824096|    0.012093|
|         480|   -5.176670|   -7.456806|    0.824093|    0.012093|
|         481|   -5.181788|   -7.463973|    0.824091|    0.012094|
|         482|   -5.186643|   -7.471540|    0.824088|    0.012094|
|         483|   -5.191261|   -7.479425|    0.824086|    0.012094|
|         484|   -5.195676|   -7.487526|    0.824084|    0.012094|
|         485|   -5.199925|   -7.495725|    0.824083|    0.012094|
|         486|   -5.204050|   -7.503895|    0.824082|    0.012094|
|         487|   -5.208098|   -7.511900|    0.824081|    0.012094|
|         488|   -5.212113|   -7.519611|    0.824080|    0.012094|
|         489|   -5.216143|   -7.526908|    0.824080|    0.012094|
|         490|   -5.220233|   -7.533694|    0.824080|    0.012094|
|         491|   -5.224426|   -7.539902|    0.824080|    0.012094|
|         492|   -5.228761|   -7.545503|    0.824081|    0.012094|
|         493|   -5.233276|   -7.550508|    0.824082|    0.012093|
|         494|   -5.238003|   -7.554969|    0.824083|    0.012093|
|         495|   -5.242967|   -7.558974|    0.824084|    0.012093|
|         496|   -5.248190|   -7.562646|    0.824086|    0.012092|
|         497|   -5.253688|   -7.566127|    0.824088|    0.012092|
|         498|   -5.259470|   -7.569574|    0.824090|    0.012091|
|         499|   -5.265539|   -7.573148|    0.824092|    0.012091|
|         500|   -5.271893|   -7.576998|    0.824094|    0.012090|
|         501|   -5.278525|   -7.581265|    0.824097|    0.012083|
+-----------------------------------------------------------------------+
|Fixed CL Mode                           |Value                         |
+-----------------------------------------------------------------------+
|Current CL                              |0.824097                      |
|Target CL                               |0.824                         |
|Previous AOA                            |2.78592                       |
|Changed AoA by                          |-0.000472266                  |
+-----------------------------------------------------------------------+
+----------------------------------------------------------------+
|  Inner_Iter|    rms[Rho]|     rms[nu]|          CL|          CD|
+----------------------------------------------------------------+
|         502|   -3.519123|   -7.451277|    0.824100|    0.012083|
|         503|   -3.902454|   -7.513040|    0.824103|    0.012082|
|         504|   -4.143241|   -7.538010|    0.824106|    0.012081|
|         505|   -4.220479|   -7.555447|    0.824109|    0.012081|
|         506|   -4.273720|   -7.570751|    0.824112|    0.012080|
|         507|   -4.342970|   -7.585163|    0.824115|    0.012080|
|         508|   -4.428587|   -7.598971|    0.824118|    0.012079|
|         509|   -4.518301|   -7.612243|    0.824122|    0.012078|
|         510|   -4.596402|   -7.624912|    0.824125|    0.012078|
|         511|   -4.654812|   -7.636724|    0.824128|    0.012077|
|         512|   -4.694634|   -7.647415|    0.824131|    0.012076|
|         513|   -4.718913|   -7.656888|    0.824134|    0.012076|
|         514|   -4.730842|   -7.665192|    0.824137|    0.012075|
|         515|   -4.736004|   -7.672339|    0.824140|    0.012074|
|         516|   -4.741142|   -7.678205|    0.824143|    0.012074|
|         517|   -4.750975|   -7.682615|    0.824145|    0.012073|
|         518|   -4.766786|   -7.685474|    0.824148|    0.012072|
|         519|   -4.786965|   -7.686836|    0.824150|    0.012072|
|         520|   -4.808525|   -7.686887|    0.824153|    0.012071|
|         521|   -4.828937|   -7.685854|    0.824155|    0.012071|
|         522|   -4.847402|   -7.683927|    0.824157|    0.012070|
|         523|   -4.864758|   -7.681259|    0.824158|    0.012069|
|         524|   -4.882334|   -7.677967|    0.824160|    0.012069|
|         525|   -4.900869|   -7.674182|    0.824161|    0.012068|
|         526|   -4.920154|   -7.670031|    0.824162|    0.012068|
|         527|   -4.939277|   -7.665674|    0.824163|    0.012067|
|         528|   -4.957094|   -7.661265|    0.824164|    0.012067|
|         529|   -4.972612|   -7.656942|    0.824165|    0.012067|
|         530|   -4.985214|   -7.652823|    0.824166|    0.012066|
|         531|   -4.994774|   -7.648998|    0.824166|    0.012066|
|         532|   -5.001701|   -7.645533|    0.824166|    0.012066|
|         533|   -5.006875|   -7.642459|    0.824166|    0.012065|
|         534|   -5.011441|   -7.639777|    0.824166|    0.012065|
|         535|   -5.016529|   -7.637461|    0.824166|    0.012065|
|         536|   -5.023016|   -7.635462|    0.824165|    0.012065|
|         537|   -5.031391|   -7.633715|    0.824165|    0.012065|
|         538|   -5.041709|   -7.632142|    0.824164|    0.012064|
|         539|   -5.053615|   -7.630661|    0.824164|    0.012064|
|         540|   -5.066394|   -7.629198|    0.824163|    0.012064|
|         541|   -5.079084|   -7.627691|    0.824162|    0.012064|
|         542|   -5.090661|   -7.626082|    0.824161|    0.012064|
|         543|   -5.100299|   -7.624331|    0.824160|    0.012065|
|         544|   -5.107616|   -7.622419|    0.824159|    0.012065|
|         545|   -5.112792|   -7.620332|    0.824157|    0.012065|
|         546|   -5.116491|   -7.618071|    0.824156|    0.012065|
|         547|   -5.119629|   -7.615646|    0.824155|    0.012065|
|         548|   -5.123100|   -7.613068|    0.824153|    0.012066|
|         549|   -5.127584|   -7.610345|    0.824151|    0.012066|
|         550|   -5.133442|   -7.607487|    0.824150|    0.012066|
|         551|   -5.140723|   -7.604501|    0.824148|    0.012067|
|         552|   -5.149212|   -7.601389|    0.824146|    0.012067|
|         553|   -5.158522|   -7.598159|    0.824144|    0.012068|
|         554|   -5.168203|   -7.594802|    0.824142|    0.012068|
|         555|   -5.177842|   -7.591315|    0.824140|    0.012069|
|         556|   -5.187144|   -7.587676|    0.824138|    0.012069|
|         557|   -5.195976|   -7.583875|    0.824135|    0.012070|
|         558|   -5.204366|   -7.579906|    0.824133|    0.012071|
|         559|   -5.212468|   -7.575772|    0.824130|    0.012071|
|         560|   -5.220495|   -7.571481|    0.824127|    0.012072|
|         561|   -5.228667|   -7.567055|    0.824124|    0.012073|
|         562|   -5.237167|   -7.562523|    0.824121|    0.012073|
|         563|   -5.246116|   -7.557926|    0.824118|    0.012074|
|         564|   -5.255572|   -7.553314|    0.824115|    0.012075|
|         565|   -5.265544|   -7.548748|    0.824112|    0.012076|
|         566|   -5.276009|   -7.544294|    0.824108|    0.012076|
|         567|   -5.286929|   -7.540020|    0.824105|    0.012077|
|         568|   -5.298267|   -7.535998|    0.824101|    0.012078|
|         569|   -5.309993|   -7.532299|    0.824098|    0.012079|
|         570|   -5.322086|   -7.528987|    0.824094|    0.012080|
|         571|   -5.334532|   -7.526120|    0.824090|    0.012080|
|         572|   -5.347310|   -7.523748|    0.824087|    0.012081|
|         573|   -5.360394|   -7.521905|    0.824083|    0.012082|
|         574|   -5.373738|   -7.520615|    0.824079|    0.012083|
|         575|   -5.387280|   -7.519884|    0.824076|    0.012084|
|         576|   -5.400935|   -7.519707|    0.824073|    0.012084|
|         577|   -5.414598|   -7.520058|    0.824069|    0.012085|
|         578|   -5.428149|   -7.520899|    0.824066|    0.012086|
|         579|   -5.441456|   -7.522175|    0.824063|    0.012087|
|         580|   -5.454377|   -7.523815|    0.824061|    0.012087|
|         581|   -5.466771|   -7.525737|    0.824058|    0.012088|
|         582|   -5.478501|   -7.527848|    0.824056|    0.012089|
|         583|   -5.489441|   -7.530045|    0.824054|    0.012090|
|         584|   -5.499483|   -7.532225|    0.824052|    0.012090|
|         585|   -5.508543|   -7.534281|    0.824050|    0.012091|
|         586|   -5.516565|   -7.536115|    0.824049|    0.012091|
|         587|   -5.523528|   -7.537640|    0.824048|    0.012092|
|         588|   -5.529445|   -7.538783|    0.824047|    0.012092|
|         589|   -5.534363|   -7.539490|    0.824046|    0.012093|
|         590|   -5.538357|   -7.539734|    0.824046|    0.012093|
|         591|   -5.541528|   -7.539506|    0.824046|    0.012094|
|         592|   -5.543992|   -7.538825|    0.824046|    0.012094|
|         593|   -5.545877|   -7.537728|    0.824046|    0.012095|
|         594|   -5.547311|   -7.536271|    0.824047|    0.012095|
|         595|   -5.548421|   -7.534521|    0.824047|    0.012095|
|         596|   -5.549326|   -7.532554|    0.824048|    0.012095|
|         597|   -5.550133|   -7.530447|    0.824050|    0.012096|
|         598|   -5.550935|   -7.528275|    0.824051|    0.012096|
|         599|   -5.551814|   -7.526106|    0.824052|    0.012096|
|         600|   -5.552834|   -7.523995|    0.824054|    0.012096|
|         601|   -5.554048|   -7.521988|    0.824056|    0.012092|
+-----------------------------------------------------------------------+
|Fixed CL Mode                           |Value                         |
+-----------------------------------------------------------------------+
|Current CL                              |0.824056                      |
|Target CL                               |0.824                         |
|Previous AOA                            |2.78545                       |
|Changed AoA by                          |-0.000270124                  |
+-----------------------------------------------------------------------+
+----------------------------------------------------------------+
|  Inner_Iter|    rms[Rho]|     rms[nu]|          CL|          CD|
+----------------------------------------------------------------+
|         602|   -3.761777|   -7.478654|    0.824058|    0.012092|
|         603|   -4.144920|   -7.496882|    0.824060|    0.012092|
|         604|   -4.384562|   -7.501456|    0.824062|    0.012092|
|         605|   -4.460774|   -7.503425|    0.824064|    0.012092|
|         606|   -4.513504|   -7.504527|    0.824066|    0.012092|
|         607|   -4.582405|   -7.505142|    0.824069|    0.012092|
|         608|   -4.667762|   -7.505370|    0.824071|    0.012091|
|         609|   -4.757518|   -7.505253|    0.824073|    0.012091|
|         610|   -4.836318|   -7.504805|    0.824076|    0.012091|
|         611|   -4.896170|   -7.504008|    0.824078|    0.012091|
|         612|   -4.937833|   -7.502853|    0.824080|    0.012090|
|         613|   -4.963851|   -7.501368|    0.824083|    0.012090|
|         614|   -4.977015|   -7.499600|    0.824085|    0.012090|
|         615|   -4.982813|   -7.497589|    0.824087|    0.012089|
|         616|   -4.988163|   -7.495359|    0.824089|    0.012089|
|         617|   -4.998019|   -7.492920|    0.824091|    0.012088|
|         618|   -5.013828|   -7.490300|    0.824093|    0.012088|
|         619|   -5.034068|   -7.487544|    0.824095|    0.012087|
|         620|   -5.055794|   -7.484711|    0.824097|    0.012087|
|         621|   -5.076500|   -7.481858|    0.824099|    0.012086|
|         622|   -5.095393|   -7.479035|    0.824100|    0.012086|
|         623|   -5.113302|   -7.476287|    0.824102|    0.012085|
|         624|   -5.131518|   -7.473649|    0.824103|    0.012085|
|         625|   -5.150711|   -7.471158|    0.824104|    0.012084|
|         626|   -5.170562|   -7.468849|    0.824106|    0.012084|
|         627|   -5.190029|   -7.466755|    0.824107|    0.012083|
|         628|   -5.207860|   -7.464911|    0.824108|    0.012083|
|         629|   -5.223014|   -7.463343|    0.824108|    0.012082|
|         630|   -5.234919|   -7.462072|    0.824109|    0.012082|
|         631|   -5.243573|   -7.461114|    0.824110|    0.012081|
|         632|   -5.249550|   -7.460474|    0.824110|    0.012080|
|         633|   -5.253876|   -7.460152|    0.824111|    0.012080|
|         634|   -5.257789|   -7.460137|    0.824111|    0.012079|
|         635|   -5.262450|   -7.460414|    0.824111|    0.012079|
|         636|   -5.268714|   -7.460958|    0.824111|    0.012078|
|         637|   -5.277016|   -7.461740|    0.824111|    0.012078|
|         638|   -5.287342|   -7.462728|    0.824111|    0.012077|
|         639|   -5.299261|   -7.463888|    0.824111|    0.012077|
|         640|   -5.311984|   -7.465187|    0.824111|    0.012076|
|         641|   -5.324484|   -7.466593|    0.824111|    0.012076|
|         642|   -5.335692|   -7.468075|    0.824111|    0.012075|
|         643|   -5.344772|   -7.469607|    0.824111|    0.012075|
|         644|   -5.351363|   -7.471167|    0.824111|    0.012075|
|         645|   -5.355692|   -7.472737|    0.824110|    0.012074|
|         646|   -5.358476|   -7.474305|    0.824110|    0.012074|
|         647|   -5.360665|   -7.475862|    0.824110|    0.012073|
|         648|   -5.363170|   -7.477401|    0.824109|    0.012073|
|         649|   -5.366663|   -7.478921|    0.824109|    0.012073|
|         650|   -5.371490|   -7.480420|    0.824109|    0.012073|
|         651|   -5.377679|   -7.481902|    0.824108|    0.012073|
|         652|   -5.384997|   -7.483368|    0.824108|    0.012072|
|         653|   -5.393050|   -7.484825|    0.824107|    0.012072|
|         654|   -5.401390|   -7.486275|    0.824107|    0.012072|
|         655|   -5.409615|   -7.487721|    0.824106|    0.012072|
|         656|   -5.417444|   -7.489165|    0.824106|    0.012072|
|         657|   -5.424761|   -7.490608|    0.824105|    0.012072|
|         658|   -5.431601|   -7.492051|    0.824104|    0.012072|
|         659|   -5.438115|   -7.493492|    0.824104|    0.012072|
|         660|   -5.444507|   -7.494932|    0.824103|    0.012072|
|         661|   -5.450978|   -7.496373|    0.824102|    0.012072|
|         662|   -5.457691|   -7.497817|    0.824101|    0.012073|
|         663|   -5.464748|   -7.499269|    0.824100|    0.012073|
|         664|   -5.472193|   -7.500737|    0.824099|    0.012073|
|         665|   -5.480025|   -7.502231|    0.824098|    0.012073|
|         666|   -5.488215|   -7.503765|    0.824097|    0.012073|
|         667|   -5.496724|   -7.505355|    0.824096|    0.012074|
|         668|   -5.505517|   -7.507023|    0.824095|    0.012074|
|         669|   -5.514569|   -7.508789|    0.824094|    0.012074|
|         670|   -5.523863|   -7.510677|    0.824093|    0.012075|
|         671|   -5.533391|   -7.512712|    0.824091|    0.012075|
|         672|   -5.543143|   -7.514914|    0.824090|    0.012075|
|         673|   -5.553103|   -7.517305|    0.824089|    0.012076|
|         674|   -5.563246|   -7.519899|    0.824088|    0.012076|
|         675|   -5.573530|   -7.522708|    0.824087|    0.012077|
|         676|   -5.583902|   -7.525736|    0.824085|    0.012077|
|         677|   -5.594298|   -7.528981|    0.824084|    0.012078|
|         678|   -5.604643|   -7.532433|    0.824083|    0.012078|
|         679|   -5.614856|   -7.536074|    0.824082|    0.012079|
|         680|   -5.624852|   -7.539879|    0.824082|    0.012079|
|         681|   -5.634549|   -7.543815|    0.824081|    0.012080|
|         682|   -5.643864|   -7.547841|    0.824080|    0.012080|
|         683|   -5.652724|   -7.551911|    0.824079|    0.012081|
|         684|   -5.661060|   -7.555976|    0.824079|    0.012081|
|         685|   -5.668818|   -7.559983|    0.824078|    0.012082|
|         686|   -5.675955|   -7.563879|    0.824078|    0.012082|
|         687|   -5.682444|   -7.567614|    0.824078|    0.012083|
|         688|   -5.688275|   -7.571142|    0.824078|    0.012083|
|         689|   -5.693455|   -7.574424|    0.824078|    0.012084|
|         690|   -5.698006|   -7.577433|    0.824078|    0.012084|
|         691|   -5.701967|   -7.580148|    0.824078|    0.012085|
|         692|   -5.705388|   -7.582566|    0.824078|    0.012085|
|         693|   -5.708327|   -7.584694|    0.824079|    0.012086|
|         694|   -5.710851|   -7.586550|    0.824079|    0.012086|
|         695|   -5.713027|   -7.588164|    0.824080|    0.012087|
|         696|   -5.714926|   -7.589574|    0.824081|    0.012087|
|         697|   -5.716615|   -7.590825|    0.824081|    0.012088|
|         698|   -5.718155|   -7.591964|    0.824082|    0.012088|
|         699|   -5.719607|   -7.593041|    0.824083|    0.012088|
|         700|   -5.721021|   -7.594103|    0.824084|    0.012089|
|         701|   -5.722443|   -7.595194|    0.824085|    0.012083|
+-----------------------------------------------------------------------+
|Fixed CL Mode                           |Value                         |
+-----------------------------------------------------------------------+
|Current CL                              |0.824085                      |
|Target CL                               |0.824                         |
|Previous AOA                            |2.78518                       |
|Changed AoA by                          |-0.000420202                  |
+-----------------------------------------------------------------------+
+----------------------------------------------------------------+
|  Inner_Iter|    rms[Rho]|     rms[nu]|          CL|          CD|
+----------------------------------------------------------------+
|         702|   -3.569943|   -7.479593|    0.824086|    0.012084|
|         703|   -3.954196|   -7.532010|    0.824087|    0.012084|
|         704|   -4.197311|   -7.550456|    0.824088|    0.012084|
|         705|   -4.275510|   -7.561590|    0.824089|    0.012085|
|         706|   -4.329003|   -7.570210|    0.824091|    0.012085|
|         707|   -4.398710|   -7.577447|    0.824092|    0.012085|
|         708|   -4.485195|   -7.583646|    0.824093|    0.012085|
|         709|   -4.576044|   -7.588996|    0.824094|    0.012086|
|         710|   -4.655047|   -7.593611|    0.824095|    0.012086|
|         711|   -4.713679|   -7.597506|    0.824096|    0.012086|
|         712|   -4.753062|   -7.600720|    0.824097|    0.012086|
|         713|   -4.776518|   -7.603409|    0.824098|    0.012086|
|         714|   -4.787566|   -7.605802|    0.824099|    0.012086|
|         715|   -4.792070|   -7.608068|    0.824100|    0.012087|
|         716|   -4.796920|   -7.610261|    0.824101|    0.012087|
|         717|   -4.806846|   -7.612360|    0.824102|    0.012087|
|         718|   -4.823066|   -7.614348|    0.824103|    0.012087|
|         719|   -4.843850|   -7.616247|    0.824104|    0.012087|
|         720|   -4.866042|   -7.618110|    0.824104|    0.012087|
|         721|   -4.886945|   -7.619979|    0.824105|    0.012087|
|         722|   -4.905663|   -7.621863|    0.824105|    0.012087|
|         723|   -4.923050|   -7.623736|    0.824106|    0.012087|
|         724|   -4.940524|   -7.625552|    0.824106|    0.012087|
|         725|   -4.958928|   -7.627275|    0.824106|    0.012087|
|         726|   -4.978134|   -7.628876|    0.824106|    0.012086|
|         727|   -4.997286|   -7.630357|    0.824107|    0.012086|
|         728|   -5.015268|   -7.631740|    0.824107|    0.012086|
|         729|   -5.031080|   -7.633051|    0.824107|    0.012086|
|         730|   -5.044069|   -7.634320|    0.824106|    0.012086|
|         731|   -5.054055|   -7.635582|    0.824106|    0.012086|
|         732|   -5.061401|   -7.636868|    0.824106|    0.012085|
|         733|   -5.066973|   -7.638202|    0.824106|    0.012085|
|         734|   -5.071938|   -7.639599|    0.824105|    0.012085|
|         735|   -5.077481|   -7.641059|    0.824105|    0.012085|
|         736|   -5.084548|   -7.642580|    0.824104|    0.012084|
|         737|   -5.093698|   -7.644144|    0.824103|    0.012084|
|         738|   -5.105055|   -7.645730|    0.824103|    0.012084|
|         739|   -5.118310|   -7.647316|    0.824102|    0.012084|
|         740|   -5.132765|   -7.648876|    0.824101|    0.012083|
|         741|   -5.147427|   -7.650390|    0.824100|    0.012083|
|         742|   -5.161190|   -7.651838|    0.824099|    0.012083|
|         743|   -5.173100|   -7.653205|    0.824098|    0.012082|
|         744|   -5.182644|   -7.654490|    0.824097|    0.012082|
|         745|   -5.189915|   -7.655689|    0.824096|    0.012082|
|         746|   -5.195564|   -7.656806|    0.824095|    0.012081|
|         747|   -5.200564|   -7.657846|    0.824094|    0.012081|
|         748|   -5.205910|   -7.658809|    0.824092|    0.012081|
|         749|   -5.212385|   -7.659699|    0.824091|    0.012080|
|         750|   -5.220435|   -7.660516|    0.824090|    0.012080|
|         751|   -5.230151|   -7.661259|    0.824088|    0.012080|
|         752|   -5.241318|   -7.661931|    0.824086|    0.012079|
|         753|   -5.253503|   -7.662537|    0.824085|    0.012079|
|         754|   -5.266170|   -7.663080|    0.824083|    0.012079|
|         755|   -5.278798|   -7.663565|    0.824081|    0.012078|
|         756|   -5.290988|   -7.663987|    0.824079|    0.012078|
|         757|   -5.302523|   -7.664349|    0.824077|    0.012078|
|         758|   -5.313394|   -7.664665|    0.824075|    0.012077|
|         759|   -5.323750|   -7.664952|    0.824073|    0.012077|
|         760|   -5.333840|   -7.665234|    0.824070|    0.012077|
|         761|   -5.343929|   -7.665540|    0.824068|    0.012077|
|         762|   -5.354243|   -7.665904|    0.824065|    0.012076|
|         763|   -5.364935|   -7.666365|    0.824063|    0.012076|
|         764|   -5.376075|   -7.666966|    0.824060|    0.012076|
|         765|   -5.387669|   -7.667753|    0.824057|    0.012076|
|         766|   -5.399678|   -7.668774|    0.824055|    0.012075|
|         767|   -5.412041|   -7.670075|    0.824052|    0.012075|
|         768|   -5.424699|   -7.671701|    0.824049|    0.012075|
|         769|   -5.437604|   -7.673693|    0.824046|    0.012075|
|         770|   -5.450722|   -7.676085|    0.824044|    0.012075|
|         771|   -5.464031|   -7.678902|    0.824041|    0.012075|
|         772|   -5.477506|   -7.682156|    0.824038|    0.012074|
|         773|   -5.491118|   -7.685844|    0.824036|    0.012074|
|         774|   -5.504819|   -7.689949|    0.824034|    0.012074|
|         775|   -5.518541|   -7.694433|    0.824031|    0.012074|
|         776|   -5.532194|   -7.699243|    0.824029|    0.012074|
|         777|   -5.545672|   -7.704303|    0.824027|    0.012074|
|         778|   -5.558853|   -7.709522|    0.824026|    0.012074|
|         779|   -5.571611|   -7.714792|    0.824024|    0.012074|
|         780|   -5.583818|   -7.719991|    0.824023|    0.012074|
|         781|   -5.595355|   -7.724992|    0.824022|    0.012074|
|         782|   -5.606115|   -7.729666|    0.824021|    0.012075|
|         783|   -5.616010|   -7.733890|    0.824020|    0.012075|
|         784|   -5.624975|   -7.737557|    0.824020|    0.012075|
|         785|   -5.632972|   -7.740583|    0.824019|    0.012075|
|         786|   -5.639991|   -7.742912|    0.824019|    0.012075|
|         787|   -5.646051|   -7.744526|    0.824020|    0.012075|
|         788|   -5.651198|   -7.745442|    0.824020|    0.012076|
|         789|   -5.655501|   -7.745713|    0.824021|    0.012076|
|         790|   -5.659049|   -7.745427|    0.824022|    0.012076|
|         791|   -5.661945|   -7.744694|    0.824023|    0.012076|
|         792|   -5.664298|   -7.743644|    0.824024|    0.012077|
|         793|   -5.666219|   -7.742418|    0.824025|    0.012077|
|         794|   -5.667815|   -7.741158|    0.824027|    0.012077|
|         795|   -5.669188|   -7.739999|    0.824029|    0.012078|
|         796|   -5.670427|   -7.739067|    0.824031|    0.012078|
|         797|   -5.671610|   -7.738473|    0.824033|    0.012078|
|         798|   -5.672803|   -7.738308|    0.824035|    0.012079|
|         799|   -5.674059|   -7.738641|    0.824037|    0.012079|
|         800|   -5.675419|   -7.739520|    0.824039|    0.012079|
|         801|   -5.676914|   -7.740970|    0.824042|    0.012077|
+-----------------------------------------------------------------------+
|Fixed CL Mode                           |Value                         |
+-----------------------------------------------------------------------+
|Current CL                              |0.824042                      |
|Target CL                               |0.824                         |
|Previous AOA                            |2.78476                       |
|Changed AoA by                          |-0.000195965                  |
+-----------------------------------------------------------------------+
+----------------------------------------------------------------+
|  Inner_Iter|    rms[Rho]|     rms[nu]|          CL|          CD|
+----------------------------------------------------------------+
|         802|   -3.901122|   -7.684605|    0.824044|    0.012077|
|         803|   -4.284146|   -7.714180|    0.824046|    0.012077|
|         804|   -4.523752|   -7.725627|    0.824049|    0.012078|
|         805|   -4.600120|   -7.733771|    0.824051|    0.012078|
|         806|   -4.652928|   -7.740987|    0.824054|    0.012078|
|         807|   -4.721800|   -7.747744|    0.824056|    0.012079|
|         808|   -4.807006|   -7.754107|    0.824058|    0.012079|
|         809|   -4.896447|   -7.760051|    0.824061|    0.012079|
|         810|   -4.974765|   -7.765513|    0.824063|    0.012080|
|         811|   -5.034057|   -7.770378|    0.824065|    0.012080|
|         812|   -5.075218|   -7.774547|    0.824067|    0.012080|
|         813|   -5.100892|   -7.777997|    0.824070|    0.012081|
|         814|   -5.113905|   -7.780756|    0.824071|    0.012081|
|         815|   -5.119684|   -7.782853|    0.824073|    0.012081|
|         816|   -5.125047|   -7.784290|    0.824075|    0.012081|
|         817|   -5.134872|   -7.785062|    0.824077|    0.012082|
|         818|   -5.150578|   -7.785202|    0.824078|    0.012082|
|         819|   -5.170642|   -7.784787|    0.824080|    0.012082|
|         820|   -5.192133|   -7.783927|    0.824081|    0.012082|
|         821|   -5.212556|   -7.782742|    0.824082|    0.012083|
|         822|   -5.231112|   -7.781339|    0.824083|    0.012083|
|         823|   -5.248597|   -7.779814|    0.824084|    0.012083|
|         824|   -5.266265|   -7.778250|    0.824084|    0.012083|
|         825|   -5.284755|   -7.776731|    0.824085|    0.012083|
|         826|   -5.303738|   -7.775340|    0.824085|    0.012083|
|         827|   -5.322190|   -7.774157|    0.824085|    0.012083|
|         828|   -5.338895|   -7.773265|    0.824086|    0.012084|
|         829|   -5.352867|   -7.772731|    0.824085|    0.012084|
|         830|   -5.363583|   -7.772613|    0.824085|    0.012084|
|         831|   -5.371073|   -7.772954|    0.824085|    0.012084|
|         832|   -5.375911|   -7.773782|    0.824085|    0.012084|
|         833|   -5.379093|   -7.775109|    0.824084|    0.012084|
|         834|   -5.381797|   -7.776930|    0.824083|    0.012084|
|         835|   -5.385116|   -7.779223|    0.824083|    0.012084|
|         836|   -5.389840|   -7.781952|    0.824082|    0.012084|
|         837|   -5.396359|   -7.785070|    0.824081|    0.012084|
|         838|   -5.404643|   -7.788524|    0.824080|    0.012084|
|         839|   -5.414285|   -7.792252|    0.824079|    0.012083|
|         840|   -5.424576|   -7.796190|    0.824077|    0.012083|
|         841|   -5.434625|   -7.800276|    0.824076|    0.012083|
|         842|   -5.443548|   -7.804453|    0.824075|    0.012083|
|         843|   -5.450686|   -7.808669|    0.824074|    0.012083|
|         844|   -5.455801|   -7.812881|    0.824072|    0.012083|
|         845|   -5.459138|   -7.817054|    0.824071|    0.012083|
|         846|   -5.461329|   -7.821163|    0.824069|    0.012083|
|         847|   -5.463182|   -7.825191|    0.824068|    0.012083|
|         848|   -5.465460|   -7.829129|    0.824066|    0.012082|
|         849|   -5.468722|   -7.832978|    0.824065|    0.012082|
|         850|   -5.473253|   -7.836739|    0.824063|    0.012082|
|         851|   -5.479069|   -7.840417|    0.824062|    0.012082|
|         852|   -5.485973|   -7.844020|    0.824061|    0.012082|
|         853|   -5.493637|   -7.847560|    0.824059|    0.012082|
|         854|   -5.501686|   -7.851035|    0.824058|    0.012082|
|         855|   -5.509793|   -7.854440|    0.824056|    0.012081|
|         856|   -5.517728|   -7.857763|    0.824055|    0.012081|
|         857|   -5.525395|   -7.860984|    0.824053|    0.012081|
|         858|   -5.532822|   -7.864079|    0.824052|    0.012081|
|         859|   -5.540127|   -7.867020|    0.824050|    0.012081|
|         860|   -5.547472|   -7.869769|    0.824049|    0.012081|
|         861|   -5.555016|   -7.872290|    0.824047|    0.012081|
|         862|   -5.562882|   -7.874547|    0.824046|    0.012080|
|         863|   -5.571144|   -7.876509|    0.824044|    0.012080|
|         864|   -5.579824|   -7.878155|    0.824043|    0.012080|
|         865|   -5.588902|   -7.879472|    0.824041|    0.012080|
|         866|   -5.598329|   -7.880464|    0.824040|    0.012080|
|         867|   -5.608046|   -7.881147|    0.824038|    0.012080|
|         868|   -5.617989|   -7.881553|    0.824037|    0.012080|
|         869|   -5.628100|   -7.881730|    0.824035|    0.012080|
|         870|   -5.638323|   -7.881736|    0.824034|    0.012080|
|         871|   -5.648604|   -7.881638|    0.824033|    0.012079|
|         872|   -5.658883|   -7.881505|    0.824031|    0.012079|
|         873|   -5.669091|   -7.881412|    0.824030|    0.012079|
|         874|   -5.679146|   -7.881426|    0.824029|    0.012079|
|         875|   -5.688953|   -7.881610|    0.824028|    0.012079|
|         876|   -5.698403|   -7.882013|    0.824027|    0.012079|
|         877|   -5.707380|   -7.882674|    0.824026|    0.012079|
|         878|   -5.715768|   -7.883614|    0.824025|    0.012079|
|         879|   -5.723452|   -7.884841|    0.824024|    0.012079|
|         880|   -5.730331|   -7.886342|    0.824023|    0.012079|
|         881|   -5.736319|   -7.888090|    0.824022|    0.012079|
|         882|   -5.741355|   -7.890043|    0.824022|    0.012079|
|         883|   -5.745402|   -7.892144|    0.824021|    0.012079|
|         884|   -5.748450|   -7.894323|    0.824021|    0.012079|
|         885|   -5.750518|   -7.896504|    0.824021|    0.012079|
|         886|   -5.751649|   -7.898606|    0.824021|    0.012079|
|         887|   -5.751910|   -7.900550|    0.824021|    0.012079|
|         888|   -5.751387|   -7.902261|    0.824021|    0.012079|
|         889|   -5.750177|   -7.903676|    0.824021|    0.012079|
|         890|   -5.748387|   -7.904746|    0.824021|    0.012079|
|         891|   -5.746128|   -7.905444|    0.824022|    0.012079|
|         892|   -5.743509|   -7.905760|    0.824022|    0.012079|
|         893|   -5.740634|   -7.905709|    0.824023|    0.012079|
|         894|   -5.737603|   -7.905325|    0.824024|    0.012080|
|         895|   -5.734505|   -7.904660|    0.824024|    0.012080|
|         896|   -5.731421|   -7.903779|    0.824025|    0.012080|
|         897|   -5.728423|   -7.902757|    0.824026|    0.012080|
|         898|   -5.725572|   -7.901672|    0.824027|    0.012080|
|         899|   -5.722922|   -7.900599|    0.824028|    0.012080|
|         900|   -5.720518|   -7.899608|    0.824029|    0.012080|
|         901|   -5.718399|   -7.898758|    0.824030|    0.012078|
+-----------------------------------------------------------------------+
|Fixed CL Mode                           |Value                         |
+-----------------------------------------------------------------------+
|Current CL                              |0.82403                       |
|Target CL                               |0.824                         |
|Previous AOA                            |2.78456                       |
[...]
|        5298|   -6.038652|   -7.923773|    0.824240|    0.012087|
|        5299|   -6.045208|   -7.927874|    0.824240|    0.012087|
|        5300|   -6.051404|   -7.932057|    0.824240|    0.012087|
|        5301|   -6.057204|   -7.936338|    0.824240|    0.012087|
|        5302|   -6.062580|   -7.940730|    0.824240|    0.012087|
|        5303|   -6.067515|   -7.945245|    0.824241|    0.012087|
|        5304|   -6.072004|   -7.949889|    0.824241|    0.012087|
|        5305|   -6.076052|   -7.954668|    0.824241|    0.012087|
|        5306|   -6.079673|   -7.959584|    0.824241|    0.012087|
|        5307|   -6.082894|   -7.964637|    0.824241|    0.012087|
|        5308|   -6.085748|   -7.969826|    0.824241|    0.012087|
|        5309|   -6.088275|   -7.975149|    0.824241|    0.012087|
|        5310|   -6.090523|   -7.980601|    0.824241|    0.012087|
|        5311|   -6.092541|   -7.986180|    0.824242|    0.012087|
|        5312|   -6.094382|   -7.991881|    0.824242|    0.012087|
|        5313|   -6.096099|   -7.997702|    0.824242|    0.012087|
|        5314|   -6.097744|   -8.003639|    0.824242|    0.012087|
|        5315|   -6.099366|   -8.009692|    0.824242|    0.012087|
|        5316|   -6.101013|   -8.015858|    0.824242|    0.012087|
|        5317|   -6.102726|   -8.022137|    0.824243|    0.012087|
|        5318|   -6.104542|   -8.028527|    0.824243|    0.012087|
|        5319|   -6.106494|   -8.035028|    0.824243|    0.012087|
|        5320|   -6.108607|   -8.041639|    0.824243|    0.012087|
|        5321|   -6.110900|   -8.048359|    0.824243|    0.012087|
|        5322|   -6.113388|   -8.055186|    0.824243|    0.012087|
|        5323|   -6.116077|   -8.062117|    0.824244|    0.012087|
|        5324|   -6.118969|   -8.069149|    0.824244|    0.012087|
|        5325|   -6.122056|   -8.076276|    0.824244|    0.012088|
|        5326|   -6.125327|   -8.083492|    0.824244|    0.012088|
|        5327|   -6.128765|   -8.090791|    0.824244|    0.012088|
|        5328|   -6.132346|   -8.098164|    0.824245|    0.012088|
|        5329|   -6.136046|   -8.105600|    0.824245|    0.012088|
|        5330|   -6.139828|   -8.113089|    0.824245|    0.012088|
|        5331|   -6.143658|   -8.120619|    0.824245|    0.012088|
|        5332|   -6.147496|   -8.128178|    0.824245|    0.012088|
|        5333|   -6.151304|   -8.135754|    0.824245|    0.012088|
|        5334|   -6.155041|   -8.143333|    0.824246|    0.012088|
|        5335|   -6.158668|   -8.150903|    0.824246|    0.012088|
|        5336|   -6.162149|   -8.158455|    0.824246|    0.012088|
|        5337|   -6.165452|   -8.165977|    0.824246|    0.012089|
|        5338|   -6.168549|   -8.173460|    0.824246|    0.012089|
|        5339|   -6.171419|   -8.180898|    0.824247|    0.012089|
|        5340|   -6.174048|   -8.188285|    0.824247|    0.012089|
|        5341|   -6.176429|   -8.195618|    0.824247|    0.012089|
|        5342|   -6.178564|   -8.202895|    0.824247|    0.012089|
|        5343|   -6.180463|   -8.210120|    0.824247|    0.012089|
|        5344|   -6.182142|   -8.217297|    0.824247|    0.012089|
|        5345|   -6.183626|   -8.224430|    0.824248|    0.012089|
|        5346|   -6.184943|   -8.231529|    0.824248|    0.012089|
|        5347|   -6.186131|   -8.238601|    0.824248|    0.012089|
|        5348|   -6.187227|   -8.245656|    0.824248|    0.012089|
|        5349|   -6.188272|   -8.252704|    0.824248|    0.012089|
|        5350|   -6.189311|   -8.259756|    0.824248|    0.012089|
|        5351|   -6.190385|   -8.266820|    0.824248|    0.012090|
|        5352|   -6.191538|   -8.273908|    0.824248|    0.012090|
|        5353|   -6.192809|   -8.281028|    0.824249|    0.012090|
|        5354|   -6.194237|   -8.288189|    0.824249|    0.012090|
|        5355|   -6.195858|   -8.295397|    0.824249|    0.012090|
|        5356|   -6.197700|   -8.302660|    0.824249|    0.012090|
|        5357|   -6.199793|   -8.309980|    0.824249|    0.012090|
|        5358|   -6.202158|   -8.317359|    0.824249|    0.012090|
|        5359|   -6.204814|   -8.324799|    0.824249|    0.012090|
|        5360|   -6.207774|   -8.332295|    0.824249|    0.012090|
|        5361|   -6.211048|   -8.339843|    0.824249|    0.012090|
|        5362|   -6.214638|   -8.347435|    0.824249|    0.012090|
|        5363|   -6.218545|   -8.355060|    0.824249|    0.012090|
|        5364|   -6.222761|   -8.362704|    0.824249|    0.012090|
|        5365|   -6.227276|   -8.370350|    0.824249|    0.012090|
|        5366|   -6.232075|   -8.377980|    0.824249|    0.012090|
|        5367|   -6.237136|   -8.385573|    0.824249|    0.012090|
|        5368|   -6.242435|   -8.393104|    0.824250|    0.012090|
|        5369|   -6.247942|   -8.400547|    0.824250|    0.012090|
|        5370|   -6.253623|   -8.407876|    0.824250|    0.012090|
|        5371|   -6.259440|   -8.415060|    0.824250|    0.012089|
|        5372|   -6.265351|   -8.422068|    0.824250|    0.012089|
|        5373|   -6.271311|   -8.428869|    0.824250|    0.012089|
|        5374|   -6.277274|   -8.435430|    0.824250|    0.012089|
|        5375|   -6.283190|   -8.441716|    0.824250|    0.012089|
|        5376|   -6.289012|   -8.447699|    0.824250|    0.012089|
|        5377|   -6.294689|   -8.453347|    0.824250|    0.012089|
|        5378|   -6.300175|   -8.458628|    0.824250|    0.012089|
|        5379|   -6.305426|   -8.463512|    0.824250|    0.012089|
|        5380|   -6.310401|   -8.467974|    0.824250|    0.012089|
|        5381|   -6.315064|   -8.471990|    0.824250|    0.012089|
|        5382|   -6.319386|   -8.475542|    0.824250|    0.012089|
|        5383|   -6.323345|   -8.478612|    0.824250|    0.012089|
|        5384|   -6.326924|   -8.481190|    0.824250|    0.012089|
|        5385|   -6.330114|   -8.483266|    0.824251|    0.012089|
|        5386|   -6.332916|   -8.484834|    0.824251|    0.012088|
|        5387|   -6.335334|   -8.485892|    0.824251|    0.012088|
|        5388|   -6.337379|   -8.486442|    0.824251|    0.012088|
|        5389|   -6.339070|   -8.486487|    0.824251|    0.012088|
|        5390|   -6.340426|   -8.486028|    0.824251|    0.012088|
|        5391|   -6.341474|   -8.485074|    0.824251|    0.012088|
|        5392|   -6.342239|   -8.483642|    0.824252|    0.012088|
|        5393|   -6.342749|   -8.481751|    0.824252|    0.012088|
|        5394|   -6.343031|   -8.479419|    0.824252|    0.012088|
|        5395|   -6.343113|   -8.476669|    0.824252|    0.012088|
|        5396|   -6.343019|   -8.473522|    0.824253|    0.012087|
|        5397|   -6.342775|   -8.470002|    0.824253|    0.012087|
|        5398|   -6.342401|   -8.466136|    0.824253|    0.012087|
|        5399|   -6.341915|   -8.461952|    0.824253|    0.012087|
|        5400|   -6.341336|   -8.457482|    0.824253|    0.012087|
|        5401|   -6.340679|   -8.452758|    0.824254|    0.012087|
|        5402|   -6.339956|   -8.447816|    0.824254|    0.012087|
|        5403|   -6.339177|   -8.442691|    0.824254|    0.012087|
|        5404|   -6.338351|   -8.437421|    0.824255|    0.012087|
|        5405|   -6.337484|   -8.432041|    0.824255|    0.012087|
|        5406|   -6.336582|   -8.426589|    0.824255|    0.012087|
|        5407|   -6.335650|   -8.421100|    0.824255|    0.012087|
|        5408|   -6.334692|   -8.415608|    0.824256|    0.012086|
|        5409|   -6.333712|   -8.410145|    0.824256|    0.012086|
|        5410|   -6.332712|   -8.404741|    0.824256|    0.012086|
|        5411|   -6.331694|   -8.399425|    0.824257|    0.012086|
|        5412|   -6.330662|   -8.394222|    0.824257|    0.012086|
|        5413|   -6.329619|   -8.389155|    0.824257|    0.012086|
|        5414|   -6.328569|   -8.384242|    0.824257|    0.012086|
|        5415|   -6.327514|   -8.379500|    0.824258|    0.012086|
|        5416|   -6.326461|   -8.374944|    0.824258|    0.012086|
|        5417|   -6.325414|   -8.370583|    0.824258|    0.012086|
|        5418|   -6.324377|   -8.366428|    0.824258|    0.012086|
|        5419|   -6.323357|   -8.362483|    0.824259|    0.012086|
|        5420|   -6.322360|   -8.358752|    0.824259|    0.012086|
|        5421|   -6.321393|   -8.355237|    0.824259|    0.012086|
|        5422|   -6.320465|   -8.351937|    0.824260|    0.012086|
|        5423|   -6.319584|   -8.348849|    0.824260|    0.012086|
|        5424|   -6.318759|   -8.345969|    0.824260|    0.012086|
|        5425|   -6.318002|   -8.343291|    0.824260|    0.012086|
|        5426|   -6.317322|   -8.340807|    0.824260|    0.012086|
|        5427|   -6.316732|   -8.338510|    0.824261|    0.012086|
|        5428|   -6.316243|   -8.336389|    0.824261|    0.012086|
|        5429|   -6.315869|   -8.334437|    0.824261|    0.012086|
|        5430|   -6.315624|   -8.332641|    0.824261|    0.012086|
|        5431|   -6.315519|   -8.330994|    0.824262|    0.012086|
|        5432|   -6.315571|   -8.329484|    0.824262|    0.012086|
|        5433|   -6.315792|   -8.328101|    0.824262|    0.012086|
|        5434|   -6.316196|   -8.326838|    0.824262|    0.012086|
|        5435|   -6.316798|   -8.325684|    0.824262|    0.012086|
|        5436|   -6.317610|   -8.324631|    0.824263|    0.012086|
|        5437|   -6.318645|   -8.323673|    0.824263|    0.012086|
|        5438|   -6.319913|   -8.322801|    0.824263|    0.012086|
|        5439|   -6.321426|   -8.322009|    0.824263|    0.012086|
|        5440|   -6.323192|   -8.321291|    0.824263|    0.012086|
|        5441|   -6.325217|   -8.320643|    0.824263|    0.012086|
|        5442|   -6.327508|   -8.320058|    0.824263|    0.012086|
|        5443|   -6.330068|   -8.319534|    0.824264|    0.012086|
|        5444|   -6.332896|   -8.319066|    0.824264|    0.012086|
|        5445|   -6.335992|   -8.318651|    0.824264|    0.012086|
|        5446|   -6.339351|   -8.318285|    0.824264|    0.012086|
|        5447|   -6.342965|   -8.317966|    0.824264|    0.012086|
|        5448|   -6.346823|   -8.317692|    0.824264|    0.012086|
|        5449|   -6.350912|   -8.317459|    0.824264|    0.012087|
|        5450|   -6.355215|   -8.317267|    0.824264|    0.012087|
|        5451|   -6.359710|   -8.317112|    0.824265|    0.012087|
|        5452|   -6.364374|   -8.316993|    0.824265|    0.012087|
|        5453|   -6.369178|   -8.316907|    0.824265|    0.012087|
|        5454|   -6.374092|   -8.316854|    0.824265|    0.012087|
|        5455|   -6.379082|   -8.316830|    0.824265|    0.012087|
|        5456|   -6.384110|   -8.316835|    0.824265|    0.012087|
|        5457|   -6.389137|   -8.316867|    0.824265|    0.012087|
|        5458|   -6.394121|   -8.316924|    0.824265|    0.012087|
|        5459|   -6.399020|   -8.317004|    0.824265|    0.012087|
|        5460|   -6.403791|   -8.317106|    0.824265|    0.012087|
|        5461|   -6.408389|   -8.317228|    0.824265|    0.012088|
|        5462|   -6.412774|   -8.317370|    0.824265|    0.012088|
|        5463|   -6.416905|   -8.317529|    0.824265|    0.012088|
|        5464|   -6.420746|   -8.317704|    0.824265|    0.012088|
|        5465|   -6.424265|   -8.317894|    0.824265|    0.012088|
|        5466|   -6.427434|   -8.318098|    0.824265|    0.012088|
|        5467|   -6.430232|   -8.318314|    0.824265|    0.012088|
|        5468|   -6.432644|   -8.318540|    0.824265|    0.012088|
|        5469|   -6.434661|   -8.318776|    0.824265|    0.012088|
|        5470|   -6.436283|   -8.319019|    0.824265|    0.012088|
|        5471|   -6.437517|   -8.319269|    0.824265|    0.012088|
|        5472|   -6.438374|   -8.319522|    0.824265|    0.012088|
|        5473|   -6.438873|   -8.319779|    0.824265|    0.012088|
|        5474|   -6.439039|   -8.320036|    0.824265|    0.012088|
|        5475|   -6.438900|   -8.320293|    0.824265|    0.012088|
|        5476|   -6.438489|   -8.320546|    0.824265|    0.012089|
|        5477|   -6.437842|   -8.320792|    0.824265|    0.012089|
|        5478|   -6.436996|   -8.321030|    0.824265|    0.012089|
|        5479|   -6.435988|   -8.321256|    0.824265|    0.012089|
|        5480|   -6.434857|   -8.321469|    0.824265|    0.012089|
|        5481|   -6.433640|   -8.321667|    0.824265|    0.012089|
|        5482|   -6.432374|   -8.321848|    0.824265|    0.012089|
|        5483|   -6.431094|   -8.322009|    0.824265|    0.012089|
|        5484|   -6.429831|   -8.322149|    0.824265|    0.012089|
|        5485|   -6.428616|   -8.322266|    0.824265|    0.012089|
|        5486|   -6.427478|   -8.322356|    0.824265|    0.012089|
|        5487|   -6.426440|   -8.322420|    0.824265|    0.012089|
|        5488|   -6.425526|   -8.322454|    0.824265|    0.012089|
|        5489|   -6.424756|   -8.322459|    0.824265|    0.012089|
|        5490|   -6.424146|   -8.322432|    0.824265|    0.012089|
|        5491|   -6.423712|   -8.322374|    0.824265|    0.012089|
|        5492|   -6.423466|   -8.322283|    0.824265|    0.012089|
|        5493|   -6.423417|   -8.322160|    0.824265|    0.012089|
|        5494|   -6.423574|   -8.322004|    0.824265|    0.012089|
|        5495|   -6.423942|   -8.321816|    0.824265|    0.012089|
|        5496|   -6.424527|   -8.321595|    0.824266|    0.012089|
|        5497|   -6.425330|   -8.321343|    0.824266|    0.012089|
|        5498|   -6.426352|   -8.321059|    0.824266|    0.012089|
|        5499|   -6.427593|   -8.320746|    0.824266|    0.012074|
+-----------------------------------------------------------------------+
|Fixed CL Mode (Finite Difference)       |Value                         |
+-----------------------------------------------------------------------+
|Delta CL / Delta AoA                    |0.265458                      |
|Delta CD / Delta CL                     |0.0209378                     |
|Delta CMz / Delta CL                    |0.0275817                     |
+-----------------------------------------------------------------------+
Writing Flow Meta-Data file: flow.meta

----------------------------- Solver Exit -------------------------------

Maximum number of iterations reached (ITER = 5500) before convergence.
+-----------------------------------------------------------------------+
|      Convergence Field     |     Value    |   Criterion  |  Converged |
+-----------------------------------------------------------------------+
|                    rms[Rho]|      -6.42759|         < -12|          No|
+-----------------------------------------------------------------------+
-------------------------------------------------------------------------

--------------------------- Finalizing Solver ---------------------------
Deleted CNumerics container.
Deleted CIntegration container.
Deleted CSolver container.
Deleted CIteration container.
Deleted CInterface container.
Deleted CGeometry container.
Deleted CFreeFormDefBox class.
Deleted CSurfaceMovement class.
Deleted CVolumetricMovement class.
Deleted CConfig container.
Deleted nInst container.
Deleted COutput class.
-------------------------------------------------------------------------

------------------------- Exit Success (SU2_CFD) ------------------------


-------------------------------------------------------------------------
|    ___ _   _ ___                                                      |
|   / __| | | |_  )   Release 8.0.0 "Harrier"                           |
|   \__ \ |_| |/ /                                                      |
|   |___/\___//___|   Suite (Solution Exporting Code)                   |
|                                                                       |
-------------------------------------------------------------------------
| SU2 Project Website: https://su2code.github.io                        |
|                                                                       |
| The SU2 Project is maintained by the SU2 Foundation                   |
| (http://su2foundation.org)                                            |
-------------------------------------------------------------------------
| Copyright 2012-2023, SU2 Contributors                                 |
|                                                                       |
| SU2 is free software; you can redistribute it and/or                  |
| modify it under the terms of the GNU Lesser General Public            |
| License as published by the Free Software Foundation; either          |
| version 2.1 of the License, or (at your option) any later version.    |
|                                                                       |
| SU2 is distributed in the hope that it will be useful,                |
| but WITHOUT ANY WARRANTY; without even the implied warranty of        |
| MERCHANTABILITY or FITNESS FOR A PARTICULAR PURPOSE. See the GNU      |
| Lesser General Public License for more details.                       |
|                                                                       |
| You should have received a copy of the GNU Lesser General Public      |
| License along with SU2. If not, see <http://www.gnu.org/licenses/>.   |
-------------------------------------------------------------------------

----------------- Physical Case Definition ( Zone 0 ) -------------------
Input mesh file name: mesh_RAE2822_turb_deform.su2

-------------------- Output Information ( Zone 0 ) ----------------------
The tabular file format is CSV (.csv).
Flow variables file name: flow.

------------- Config File Boundary Information ( Zone 0 ) ---------------
+-----------------------------------------------------------------------+
|                        Marker Type|                        Marker Name|
+-----------------------------------------------------------------------+
|                          Far-field|                           FARFIELD|
+-----------------------------------------------------------------------+
|                     Heat flux wall|                            AIRFOIL|
+-----------------------------------------------------------------------+
Two dimensional problem.
13937 grid points before partitioning.
22842 volume elements before partitioning.
2 surface markers.
192 boundary elements in index 0 (Marker = AIRFOIL).
40 boundary elements in index 1 (Marker = FARFIELD).
Executing the partitioning functions.
Building the graph adjacency structure.
Calling ParMETIS... graph partitioning complete (831 edge cuts).
Distributing ParMETIS coloring.
Rebalancing vertices.
Rebalancing volume element connectivity.
Rebalancing markers and surface elements.
14875 vertices including ghost points. 
23674 interior elements including halo cells. 
18780 triangles.
4894 quadrilaterals.
Establishing MPI communication patterns.
Identify vertices.
Storing a mapping from global to local point index.

------------------------- Solution Postprocessing -----------------------
Reading and storing the solution from restart_flow.
Volume output fields: COORDINATES, SOLUTION
  Info: Ignoring the following screen output fields:
  RMS_DENSITY, RMS_NU_TILDE, LIFT, DRAG
Screen output fields: INNER_ITER
  Info: Ignoring the following history output groups:
  RMS_RES, AERO_COEFF
History output group(s): ITER
Warning: No (valid) fields chosen for convergence monitoring. Convergence monitoring inactive.
Warning: No (valid) fields chosen for time convergence monitoring. Time convergence monitoring inactive.
|Paraview                           |flow.vtu                           |
|Paraview surface                   |surface_flow.vtu                   |
|CSV file                           |surface_flow.csv                   |

------------------------- Finalize Solver -------------------------
Deleted CGeometry container.
Deleted CSolver class.
Deleted CConfig container.
Deleted COutput class.

Completed in 0.014916 seconds on 6 cores.

------------------------- Exit Success (SU2_SOL) ------------------------

