
-------------------------------------------------------------------------
|    ___ _   _ ___                                                      |
|   / __| | | |_  )   Release 8.0.0 "Harrier"                           |
|   \__ \ |_| |/ /                                                      |
|   |___/\___//___|   Suite (Computational Fluid Dynamics Code)         |
|                                                                       |
-------------------------------------------------------------------------
| SU2 Project Website: https://su2code.github.io                        |
|                                                                       |
| The SU2 Project is maintained by the SU2 Foundation                   |
| (http://su2foundation.org)                                            |
-------------------------------------------------------------------------
| Copyright 2012-2023, SU2 Contributors                                 |
|                                                                       |
| SU2 is free software; you can redistribute it and/or                  |
| modify it under the terms of the GNU Lesser General Public            |
| License as published by the Free Software Foundation; either          |
| version 2.1 of the License, or (at your option) any later version.    |
|                                                                       |
| SU2 is distributed in the hope that it will be useful,                |
| but WITHOUT ANY WARRANTY; without even the implied warranty of        |
| MERCHANTABILITY or FITNESS FOR A PARTICULAR PURPOSE. See the GNU      |
| Lesser General Public License for more details.                       |
|                                                                       |
| You should have received a copy of the GNU Lesser General Public      |
| License along with SU2. If not, see <http://www.gnu.org/licenses/>.   |
-------------------------------------------------------------------------

Parsing config file for zone 0

----------------- Physical Case Definition ( Zone 0 ) -------------------
Compressible RANS equations.
Turbulence model: Spalart-Allmaras-noft2
Hybrid RANS/LES: No Hybrid RANS/LES
Mach number: 0.734.
Angle of attack (AoA): 2.31 deg, and angle of sideslip (AoS): 0 deg.
Reynolds number: 6.5e+06. Reference length 1.
Fixed CL mode, target value: 0.824.
Reading and writing binary SU2 native restart files.
Read flow solution from: solution_flow.dat.
Dimensional simulation.
The reference area is 1 m^2.
The semi-span will be computed using the max y(3D) value.
The reference length is 1 m.
Reference origin for moment evaluation is (0.25, 0, 0).
Surface(s) where the force coefficients are evaluated: AIRFOIL.

Surface(s) plotted in the output file: AIRFOIL.
Surface(s) affected by the design variables: AIRFOIL.
Input mesh file name: mesh_RAE2822_turb_deform.su2

--------------- Space Numerical Integration ( Zone 0 ) ------------------
Jameson-Schmidt-Turkel scheme (2nd order in space) for the flow inviscid terms.
JST viscous coefficients (2nd & 4th): 0.5, 0.02.
The method includes a grid stretching correction (p = 0.3).
Scalar upwind solver for the turbulence model.
First order integration in space.
Average of gradients with correction (viscous flow terms).
Average of gradients with correction (viscous turbulence terms).
Gradient for viscous and source terms: inverse-distance weighted Least-Squares.

--------------- Time Numerical Integration  ( Zone 0 ) ------------------
Local time stepping (steady state simulation).
Euler implicit method for the flow equations.
FGMRES is used for solving the linear system.
Using a ILU(0) preconditioning.
Convergence criteria of the linear solver: 1e-06.
Max number of linear iterations: 10.
No CFL adaptation.
Courant-Friedrichs-Lewy number:       10
Euler implicit time integration for the turbulence model.

------------------ Convergence Criteria  ( Zone 0 ) ---------------------
Maximum number of solver subiterations: 5500.
Begin convergence monitoring at iteration 10.
Residual minimum value: 1e-12.
Cauchy series min. value: 1e-06.
Number of Cauchy elements: 100.
Begin windowed time average at iteration 0.

-------------------- Output Information ( Zone 0 ) ----------------------
File writing frequency: 
+------------------------------------+
|                     File| Frequency|
+------------------------------------+
|                  RESTART|     10000|
|                 PARAVIEW|     10000|
|         SURFACE_PARAVIEW|     10000|
|              SURFACE_CSV|     10000|
+------------------------------------+
Writing the convergence history file every 1 inner iterations.
Writing the screen convergence history every 1 inner iterations.
The tabular file format is CSV (.csv).
Convergence history file name: history_direct.
Forces breakdown file name: forces_breakdown.dat.
Surface file name: surface_flow.
Volume file name: flow.
Restart file name: restart_flow.dat.

------------- Config File Boundary Information ( Zone 0 ) ---------------
+-----------------------------------------------------------------------+
|                        Marker Type|                        Marker Name|
+-----------------------------------------------------------------------+
|                          Far-field|                           FARFIELD|
+-----------------------------------------------------------------------+
|                     Heat flux wall|                            AIRFOIL|
+-----------------------------------------------------------------------+

-------------------- Output Preprocessing ( Zone 0 ) --------------------

WARNING: SURFACE_PRESSURE_DROP can only be computed for at least 2 surfaces (outlet, inlet, ...)

Screen output fields: INNER_ITER, RMS_DENSITY, RMS_NU_TILDE, LIFT, DRAG
History output group(s): ITER, RMS_RES, AERO_COEFF
Convergence field(s): RMS_DENSITY
Warning: No (valid) fields chosen for time convergence monitoring. Time convergence monitoring inactive.
Volume output fields: COORDINATES, SOLUTION, PRIMITIVE

------------------- Geometry Preprocessing ( Zone 0 ) -------------------
Two dimensional problem.
13937 grid points before partitioning.
22842 volume elements before partitioning.
2 surface markers.
192 boundary elements in index 0 (Marker = AIRFOIL).
40 boundary elements in index 1 (Marker = FARFIELD).
Executing the partitioning functions.
Building the graph adjacency structure.
Calling ParMETIS... graph partitioning complete (831 edge cuts).
Distributing ParMETIS coloring.
Rebalancing vertices.
Rebalancing volume element connectivity.
Rebalancing markers and surface elements.
14875 vertices including ghost points. 
23674 interior elements including halo cells. 
18780 triangles.
4894 quadrilaterals.
Establishing MPI communication patterns.
Setting point connectivity.
Renumbering points (Reverse Cuthill McKee Ordering).
Recomputing point connectivity.
Setting element connectivity.
Checking the numerical grid orientation.
All volume elements are correctly orientend.
All surface elements are correctly orientend.
Identifying edges and vertices.
Setting the control volume structure.
Area of the computational grid: 32209.9.
Searching for the closest normal neighbors to the surfaces.
Storing a mapping from global to local point index.
Compute the surface curvature.
Max K: 171.755. Mean K: 7.7646. Standard deviation K: 23.6243.
Checking for periodicity.
Computing mesh quality statistics for the dual control volumes.
+--------------------------------------------------------------+
|           Mesh Quality Metric|        Minimum|        Maximum|
+--------------------------------------------------------------+
|    Orthogonality Angle (deg.)|        75.1649|        89.9991|
|     CV Face Area Aspect Ratio|        1.00369|        3358.53|
|           CV Sub-Volume Ratio|        1.00048|        1214.87|
+--------------------------------------------------------------+
Finding max control volume width.
Communicating number of neighbors.
Wetted area = 2.02201 m.
Area projection in the x-plane = 0.124799 m, y-plane = 0.995873 m.
Max. coordinate in the x-direction = 1 m, y-direction = 0.0622181 m.
Min. coordinate in the x-direction = 0 m, y-direction = -0.0598835 m.
Computing wall distances.

-------------------- Solver Preprocessing ( Zone 0 ) --------------------
WARNING: AoA in the solution file (2.79263 deg.) +
         AoA offset in mesh file (0 deg.) = 2.79263 deg.
WARNING: SU2 will use the dCD/dCL provided in the direct solution file: 0.0169774.
WARNING: SU2 will use the dCMz/dCL provided in the direct solution file: -0.00817882.
Viscous flow: Computing pressure using the ideal gas law
based on the free-stream temperature and a density computed
from the Reynolds number.
Force coefficients computed using free-stream values.

-- Models:
+------------------------------------------------------------------------------+
|          Viscosity Model|        Conductivity Model|              Fluid Model|
+------------------------------------------------------------------------------+
|               SUTHERLAND|          CONSTANT_PRANDTL|             STANDARD_AIR|
+------------------------------------------------------------------------------+
-- Fluid properties:
+------------------------------------------------------------------------------+
|                  Name|    Dim. value|    Ref. value|      Unit|Non-dim. value|
+------------------------------------------------------------------------------+
|        Ref. Viscosity|     1.716e-05|             1|   N.s/m^2|     1.716e-05|
|      Sutherland Temp.|        273.15|             1|         K|        273.15|
|     Sutherland Const.|         110.4|             1|         K|         110.4|
+------------------------------------------------------------------------------+
|        Prandtl (Lam.)|             -|             -|         -|          0.71|
|       Prandtl (Turb.)|             -|             -|         -|           0.9|
+------------------------------------------------------------------------------+
|          Gas Constant|       287.058|             1|  N.m/kg.K|       287.058|
|      Spec. Heat Ratio|             -|             -|         -|           1.4|
+------------------------------------------------------------------------------+
-- Initial and free-stream conditions:
+------------------------------------------------------------------------------+
|                  Name|    Dim. value|    Ref. value|      Unit|Non-dim. value|
+------------------------------------------------------------------------------+
|       Static Pressure|         38515|             1|        Pa|         38515|
|               Density|      0.465631|             1|    kg/m^3|      0.465631|
|           Temperature|        288.15|             1|         K|        288.15|
|          Total Energy|        237984|             1|   m^2/s^2|        237984|
|            Velocity-X|       249.481|             1|       m/s|       249.481|
|            Velocity-Y|       12.1695|             1|       m/s|       12.1695|
|    Velocity Magnitude|       249.778|             1|       m/s|       249.778|
+------------------------------------------------------------------------------+
|             Viscosity|    1.7893e-05|             1|   N.s/m^2|    1.7893e-05|
|          Conductivity|             -|             1|   W/m^2.K|             -|
|     Turb. Kin. Energy|       233.959|             1|   m^2/s^2|       233.959|
|     Spec. Dissipation|        608834|             1|       1/s|        608834|
+------------------------------------------------------------------------------+
|           Mach Number|             -|             -|         -|         0.734|
|       Reynolds Number|             -|             -|         -|       6.5e+06|
+------------------------------------------------------------------------------+
Initialize Jacobian structure (Navier-Stokes). MG level: 0.
Initialize Jacobian structure (SA model).

------------------- Numerics Preprocessing ( Zone 0 ) -------------------

----------------- Integration Preprocessing ( Zone 0 ) ------------------

------------------- Iteration Preprocessing ( Zone 0 ) ------------------
Euler/Navier-Stokes/RANS fluid iteration.

------------------------------ Begin Solver -----------------------------

Simulation Run using the Single-zone Driver
WARNING: SU2 was not compiled for an AVX-capable architecture. Performance could be better,
         see https://su2code.github.io/docs_v7/Build-SU2-Linux-MacOS/#compiler-optimizations
+----------------------------------------------------------------+
|  Inner_Iter|    rms[Rho]|     rms[nu]|          CL|          CD|
+----------------------------------------------------------------+
|           0|   -4.492695|   -5.727515|    0.823864|    0.012201|
|           1|   -4.551439|   -5.831312|    0.823811|    0.012217|
|           2|   -4.616341|   -5.948250|    0.823816|    0.012221|
|           3|   -4.671377|   -6.073248|    0.823853|    0.012221|
|           4|   -4.714780|   -6.200637|    0.823898|    0.012221|
|           5|   -4.744834|   -6.317159|    0.823937|    0.012221|
|           6|   -4.761078|   -6.393639|    0.823960|    0.012222|
|           7|   -4.766658|   -6.410358|    0.823968|    0.012222|
|           8|   -4.765741|   -6.384266|    0.823963|    0.012221|
|           9|   -4.760630|   -6.351677|    0.823946|    0.012217|
|          10|   -4.751910|   -6.330372|    0.823923|    0.012210|
|          11|   -4.740037|   -6.324276|    0.823896|    0.012201|
|          12|   -4.726203|   -6.331613|    0.823868|    0.012188|
|          13|   -4.712088|   -6.347236|    0.823840|    0.012174|
|          14|   -4.699249|   -6.362691|    0.823817|    0.012157|
|          15|   -4.688741|   -6.367166|    0.823800|    0.012140|
|          16|   -4.681018|   -6.352735|    0.823791|    0.012123|
|          17|   -4.675977|   -6.321018|    0.823790|    0.012106|
|          18|   -4.673071|   -6.281614|    0.823799|    0.012090|
|          19|   -4.671481|   -6.244594|    0.823816|    0.012075|
|          20|   -4.670361|   -6.216207|    0.823840|    0.012062|
|          21|   -4.669104|   -6.199509|    0.823870|    0.012051|
|          22|   -4.667507|   -6.195187|    0.823904|    0.012042|
|          23|   -4.665757|   -6.202873|    0.823938|    0.012034|
|          24|   -4.664264|   -6.220857|    0.823972|    0.012028|
|          25|   -4.663432|   -6.245948|    0.824004|    0.012022|
|          26|   -4.663491|   -6.274398|    0.824032|    0.012018|
|          27|   -4.664431|   -6.301435|    0.824056|    0.012015|
|          28|   -4.666037|   -6.322394|    0.824076|    0.012012|
|          29|   -4.667979|   -6.334549|    0.824091|    0.012009|
|          30|   -4.669919|   -6.338345|    0.824103|    0.012006|
|          31|   -4.671589|   -6.336796|    0.824111|    0.012004|
|          32|   -4.672830|   -6.333704|    0.824117|    0.012001|
|          33|   -4.673594|   -6.332184|    0.824122|    0.011998|
|          34|   -4.673913|   -6.334149|    0.824127|    0.011995|
|          35|   -4.673861|   -6.340410|    0.824133|    0.011992|
|          36|   -4.673524|   -6.350941|    0.824140|    0.011989|
|          37|   -4.672981|   -6.365111|    0.824149|    0.011986|
|          38|   -4.672296|   -6.381855|    0.824161|    0.011983|
|          39|   -4.671523|   -6.399823|    0.824177|    0.011979|
|          40|   -4.670705|   -6.417532|    0.824195|    0.011976|
|          41|   -4.669881|   -6.433583|    0.824216|    0.011973|
|          42|   -4.669081|   -6.446884|    0.824241|    0.011970|
|          43|   -4.668329|   -6.456821|    0.824268|    0.011967|
|          44|   -4.667636|   -6.463295|    0.824298|    0.011965|
|          45|   -4.666999|   -6.466639|    0.824330|    0.011962|
|          46|   -4.666396|   -6.467451|    0.824364|    0.011960|
|          47|   -4.665790|   -6.466397|    0.824399|    0.011959|
|          48|   -4.665131|   -6.464088|    0.824434|    0.011958|
|          49|   -4.664361|   -6.461031|    0.824470|    0.011957|
|          50|   -4.663426|   -6.457621|    0.824505|    0.011957|
|          51|   -4.662283|   -6.454169|    0.824540|    0.011958|
|          52|   -4.660909|   -6.450929|    0.824573|    0.011959|
|          53|   -4.659306|   -6.448114|    0.824606|    0.011961|
|          54|   -4.657503|   -6.445907|    0.824637|    0.011963|
|          55|   -4.655551|   -6.444464|    0.824666|    0.011966|
|          56|   -4.653515|   -6.443903|    0.824693|    0.011969|
|          57|   -4.651467|   -6.444306|    0.824718|    0.011973|
|          58|   -4.649473|   -6.445710|    0.824742|    0.011977|
|          59|   -4.647587|   -6.448108|    0.824764|    0.011981|
|          60|   -4.645847|   -6.451451|    0.824784|    0.011986|
|          61|   -4.644271|   -6.455648|    0.824802|    0.011992|
|          62|   -4.642860|   -6.460582|    0.824819|    0.011997|
|          63|   -4.641604|   -6.466117|    0.824834|    0.012003|
|          64|   -4.640487|   -6.472108|    0.824848|    0.012009|
|          65|   -4.639493|   -6.478410|    0.824860|    0.012015|
|          66|   -4.638609|   -6.484888|    0.824872|    0.012022|
|          67|   -4.637831|   -6.491424|    0.824882|    0.012028|
|          68|   -4.637164|   -6.497925|    0.824892|    0.012035|
|          69|   -4.636616|   -6.504319|    0.824900|    0.012041|
|          70|   -4.636201|   -6.510559|    0.824908|    0.012048|
|          71|   -4.635931|   -6.516628|    0.824914|    0.012054|
|          72|   -4.635814|   -6.522519|    0.824920|    0.012061|
|          73|   -4.635857|   -6.528239|    0.824925|    0.012067|
|          74|   -4.636058|   -6.533808|    0.824930|    0.012073|
|          75|   -4.636415|   -6.539256|    0.824933|    0.012079|
|          76|   -4.636923|   -6.544614|    0.824937|    0.012085|
|          77|   -4.637576|   -6.549906|    0.824939|    0.012091|
|          78|   -4.638372|   -6.555151|    0.824942|    0.012097|
|          79|   -4.639313|   -6.560366|    0.824944|    0.012103|
|          80|   -4.640402|   -6.565563|    0.824945|    0.012108|
|          81|   -4.641645|   -6.570747|    0.824947|    0.012113|
|          82|   -4.643043|   -6.575918|    0.824948|    0.012118|
|          83|   -4.644598|   -6.581067|    0.824950|    0.012123|
|          84|   -4.646301|   -6.586181|    0.824952|    0.012128|
|          85|   -4.648137|   -6.591240|    0.824953|    0.012133|
|          86|   -4.650081|   -6.596221|    0.824955|    0.012138|
|          87|   -4.652099|   -6.601096|    0.824957|    0.012142|
|          88|   -4.654149|   -6.605836|    0.824959|    0.012147|
|          89|   -4.656188|   -6.610411|    0.824962|    0.012151|
|          90|   -4.658170|   -6.614788|    0.824964|    0.012156|
|          91|   -4.660055|   -6.618943|    0.824966|    0.012160|
|          92|   -4.661811|   -6.622860|    0.824968|    0.012164|
|          93|   -4.663417|   -6.626530|    0.824970|    0.012168|
|          94|   -4.664867|   -6.629952|    0.824972|    0.012172|
|          95|   -4.666168|   -6.633140|    0.824974|    0.012176|
|          96|   -4.667342|   -6.636125|    0.824975|    0.012179|
|          97|   -4.668425|   -6.638938|    0.824976|    0.012183|
|          98|   -4.669460|   -6.641612|    0.824976|    0.012186|
|          99|   -4.670500|   -6.644189|    0.824975|    0.012189|
|         100|   -4.671597|   -6.646716|    0.824974|    0.012191|
|         101|   -4.672804|   -6.649244|    0.824973|    0.012124|
+-----------------------------------------------------------------------+
|Fixed CL Mode                           |Value                         |
+-----------------------------------------------------------------------+
|Current CL                              |0.824973                      |
|Target CL                               |0.824                         |
|Previous AOA                            |2.79263                       |
|Changed AoA by                          |-0.00486969                   |
+-----------------------------------------------------------------------+
+----------------------------------------------------------------+
|  Inner_Iter|    rms[Rho]|     rms[nu]|          CL|          CD|
+----------------------------------------------------------------+
|         102|   -2.505885|   -6.478504|    0.824970|    0.012126|
|         103|   -2.890734|   -6.552001|    0.824967|    0.012128|
|         104|   -3.136306|   -6.579705|    0.824963|    0.012129|
|         105|   -3.216338|   -6.596801|    0.824958|    0.012130|
|         106|   -3.270660|   -6.610209|    0.824952|    0.012131|
|         107|   -3.340968|   -6.621654|    0.824946|    0.012131|
|         108|   -3.427904|   -6.631668|    0.824940|    0.012132|
|         109|   -3.518534|   -6.640553|    0.824933|    0.012131|
|         110|   -3.595889|   -6.648501|    0.824925|    0.012131|
|         111|   -3.651386|   -6.655529|    0.824917|    0.012130|
|         112|   -3.687004|   -6.661673|    0.824910|    0.012129|
|         113|   -3.707104|   -6.667210|    0.824902|    0.012127|
|         114|   -3.715876|   -6.672532|    0.824894|    0.012125|
|         115|   -3.719244|   -6.677944|    0.824886|    0.012123|
|         116|   -3.723710|   -6.683549|    0.824878|    0.012121|
|         117|   -3.733576|   -6.689307|    0.824871|    0.012119|
|         118|   -3.749797|   -6.695187|    0.824864|    0.012116|
|         119|   -3.770533|   -6.701225|    0.824857|    0.012113|
|         120|   -3.792607|   -6.707481|    0.824851|    0.012110|
|         121|   -3.813319|   -6.714017|    0.824845|    0.012107|
|         122|   -3.831766|   -6.720811|    0.824839|    0.012104|
|         123|   -3.848786|   -6.727782|    0.824834|    0.012101|
|         124|   -3.865814|   -6.734804|    0.824830|    0.012097|
|         125|   -3.883759|   -6.741733|    0.824826|    0.012094|
|         126|   -3.902609|   -6.748476|    0.824822|    0.012090|
|         127|   -3.921644|   -6.754994|    0.824819|    0.012087|
|         128|   -3.939855|   -6.761270|    0.824815|    0.012083|
|         129|   -3.956288|   -6.767251|    0.824812|    0.012080|
|         130|   -3.970245|   -6.772925|    0.824810|    0.012076|
|         131|   -3.981423|   -6.778343|    0.824807|    0.012072|
|         132|   -3.990023|   -6.783547|    0.824804|    0.012068|
|         133|   -3.996756|   -6.788570|    0.824801|    0.012064|
|         134|   -4.002687|   -6.793447|    0.824798|    0.012060|
|         135|   -4.008958|   -6.798185|    0.824794|    0.012056|
|         136|   -4.016524|   -6.802850|    0.824791|    0.012052|
|         137|   -4.025985|   -6.807471|    0.824786|    0.012047|
|         138|   -4.037515|   -6.812008|    0.824782|    0.012043|
|         139|   -4.050859|   -6.816465|    0.824776|    0.012039|
|         140|   -4.065367|   -6.820841|    0.824770|    0.012034|
|         141|   -4.080085|   -6.825050|    0.824764|    0.012029|
|         142|   -4.093932|   -6.829049|    0.824756|    0.012025|
|         143|   -4.105961|   -6.832731|    0.824748|    0.012020|
|         144|   -4.115646|   -6.836092|    0.824739|    0.012015|
|         145|   -4.123053|   -6.839034|    0.824729|    0.012010|
|         146|   -4.128801|   -6.841547|    0.824717|    0.012006|
|         147|   -4.133832|   -6.843631|    0.824705|    0.012001|
|         148|   -4.139121|   -6.845081|    0.824692|    0.011996|
|         149|   -4.145435|   -6.845861|    0.824678|    0.011991|
|         150|   -4.153210|   -6.845907|    0.824662|    0.011986|
|         151|   -4.162529|   -6.845234|    0.824645|    0.011980|
|         152|   -4.173167|   -6.843870|    0.824627|    0.011975|
|         153|   -4.184686|   -6.841855|    0.824607|    0.011970|
|         154|   -4.196545|   -6.839213|    0.824586|    0.011965|
|         155|   -4.208223|   -6.836017|    0.824564|    0.011960|
|         156|   -4.219322|   -6.832396|    0.824540|    0.011955|
|         157|   -4.229634|   -6.828529|    0.824515|    0.011950|
|         158|   -4.239154|   -6.824398|    0.824489|    0.011945|
|         159|   -4.248037|   -6.820197|    0.824461|    0.011941|
|         160|   -4.256532|   -6.816116|    0.824432|    0.011936|
|         161|   -4.264902|   -6.812311|    0.824402|    0.011931|
|         162|   -4.273367|   -6.808903|    0.824371|    0.011927|
|         163|   -4.282077|   -6.806038|    0.824339|    0.011922|
|         164|   -4.291099|   -6.803854|    0.824306|    0.011918|
|         165|   -4.300437|   -6.802469|    0.824273|    0.011914|
|         166|   -4.310052|   -6.801972|    0.824239|    0.011910|
|         167|   -4.319885|   -6.802439|    0.824205|    0.011906|
|         168|   -4.329878|   -6.803875|    0.824171|    0.011903|
|         169|   -4.339981|   -6.806318|    0.824137|    0.011899|
|         170|   -4.350157|   -6.809782|    0.824104|    0.011896|
|         171|   -4.360377|   -6.814230|    0.824071|    0.011893|
|         172|   -4.370613|   -6.819596|    0.824040|    0.011890|
|         173|   -4.380834|   -6.825771|    0.824009|    0.011888|
|         174|   -4.390993|   -6.832605|    0.823980|    0.011886|
|         175|   -4.401033|   -6.839895|    0.823952|    0.011884|
|         176|   -4.410879|   -6.847407|    0.823926|    0.011882|
|         177|   -4.420452|   -6.854868|    0.823902|    0.011881|
|         178|   -4.429663|   -6.861976|    0.823880|    0.011880|
|         179|   -4.438425|   -6.868413|    0.823860|    0.011879|
|         180|   -4.446656|   -6.873875|    0.823843|    0.011879|
|         181|   -4.454285|   -6.878082|    0.823828|    0.011878|
|         182|   -4.461253|   -6.880812|    0.823815|    0.011879|
|         183|   -4.467519|   -6.881937|    0.823806|    0.011879|
|         184|   -4.473062|   -6.881420|    0.823798|    0.011879|
|         185|   -4.477882|   -6.879344|    0.823794|    0.011880|
|         186|   -4.482000|   -6.875865|    0.823792|    0.011882|
|         187|   -4.485458|   -6.871252|    0.823792|    0.011883|
|         188|   -4.488317|   -6.865812|    0.823795|    0.011885|
|         189|   -4.490655|   -6.859867|    0.823800|    0.011886|
|         190|   -4.492562|   -6.853748|    0.823807|    0.011889|
|         191|   -4.494135|   -6.847768|    0.823817|    0.011891|
|         192|   -4.495474|   -6.842211|    0.823828|    0.011893|
|         193|   -4.496679|   -6.837329|    0.823841|    0.011896|
|         194|   -4.497844|   -6.833320|    0.823856|    0.011899|
|         195|   -4.499056|   -6.830350|    0.823872|    0.011902|
|         196|   -4.500392|   -6.828545|    0.823890|    0.011905|
|         197|   -4.501916|   -6.828003|    0.823908|    0.011908|
|         198|   -4.503681|   -6.828785|    0.823928|    0.011912|
|         199|   -4.505727|   -6.830934|    0.823949|    0.011915|
|         200|   -4.508082|   -6.834470|    0.823970|    0.011919|
|         201|   -4.510760|   -6.839388|    0.823992|    0.011925|
+-----------------------------------------------------------------------+
|Fixed CL Mode                           |Value                         |
+-----------------------------------------------------------------------+
|Current CL                              |0.823992                      |
|Target CL                               |0.824                         |
|Previous AOA                            |2.78776                       |
|Changed AoA by                          |0.000150229                   |
+-----------------------------------------------------------------------+
+----------------------------------------------------------------+
|  Inner_Iter|    rms[Rho]|     rms[nu]|          CL|          CD|
+----------------------------------------------------------------+
|         202|   -3.996667|   -6.845163|    0.824014|    0.011928|
|         203|   -4.314877|   -6.853019|    0.824036|    0.011932|
|         204|   -4.453516|   -6.861837|    0.824058|    0.011936|
|         205|   -4.482672|   -6.871684|    0.824081|    0.011940|
|         206|   -4.495633|   -6.882434|    0.824103|    0.011944|
|         207|   -4.508964|   -6.893900|    0.824124|    0.011948|
|         208|   -4.521789|   -6.905846|    0.824145|    0.011952|
|         209|   -4.531526|   -6.917989|    0.824166|    0.011956|
|         210|   -4.537658|   -6.930001|    0.824186|    0.011959|
|         211|   -4.541381|   -6.941513|    0.824205|    0.011963|
|         212|   -4.543999|   -6.952133|    0.824223|    0.011967|
|         213|   -4.546260|   -6.961472|    0.824240|    0.011971|
|         214|   -4.548533|   -6.969176|    0.824256|    0.011974|
|         215|   -4.551050|   -6.974960|    0.824271|    0.011978|
|         216|   -4.553943|   -6.978641|    0.824285|    0.011982|
|         217|   -4.557179|   -6.980154|    0.824297|    0.011985|
|         218|   -4.560543|   -6.979563|    0.824308|    0.011988|
|         219|   -4.563720|   -6.977039|    0.824317|    0.011991|
|         220|   -4.566427|   -6.972854|    0.824325|    0.011994|
|         221|   -4.568519|   -6.967352|    0.824331|    0.011997|
|         222|   -4.570021|   -6.960896|    0.824336|    0.012000|
|         223|   -4.571075|   -6.953845|    0.824339|    0.012002|
|         224|   -4.571872|   -6.946532|    0.824340|    0.012005|
|         225|   -4.572587|   -6.939252|    0.824340|    0.012007|
|         226|   -4.573356|   -6.932257|    0.824339|    0.012009|
|         227|   -4.574267|   -6.925750|    0.824336|    0.012010|
|         228|   -4.575371|   -6.919882|    0.824331|    0.012012|
|         229|   -4.576683|   -6.914780|    0.824325|    0.012013|
|         230|   -4.578201|   -6.910538|    0.824317|    0.012014|
|         231|   -4.579909|   -6.907216|    0.824308|    0.012015|
|         232|   -4.581792|   -6.904850|    0.824298|    0.012016|
|         233|   -4.583848|   -6.903442|    0.824286|    0.012017|
|         234|   -4.586087|   -6.902985|    0.824274|    0.012017|
|         235|   -4.588532|   -6.903459|    0.824260|    0.012017|
|         236|   -4.591212|   -6.904814|    0.824246|    0.012017|
|         237|   -4.594155|   -6.906996|    0.824230|    0.012017|
|         238|   -4.597378|   -6.909932|    0.824214|    0.012017|
|         239|   -4.600887|   -6.913537|    0.824197|    0.012016|
|         240|   -4.604670|   -6.917712|    0.824180|    0.012016|
|         241|   -4.608702|   -6.922353|    0.824163|    0.012015|
|         242|   -4.612947|   -6.927352|    0.824145|    0.012014|
|         243|   -4.617362|   -6.932596|    0.824127|    0.012013|
|         244|   -4.621906|   -6.937967|    0.824109|    0.012012|
|         245|   -4.626540|   -6.943331|    0.824091|    0.012011|
|         246|   -4.631233|   -6.948567|    0.824073|    0.012009|
|         247|   -4.635959|   -6.953565|    0.824055|    0.012008|
|         248|   -4.640700|   -6.958239|    0.824038|    0.012006|
|         249|   -4.645439|   -6.962517|    0.824021|    0.012005|
|         250|   -4.650163|   -6.966352|    0.824005|    0.012003|
|         251|   -4.654858|   -6.969720|    0.823990|    0.012002|
|         252|   -4.659513|   -6.972621|    0.823975|    0.012000|
|         253|   -4.664115|   -6.975076|    0.823961|    0.011998|
|         254|   -4.668652|   -6.977123|    0.823948|    0.011997|
|         255|   -4.673115|   -6.978812|    0.823936|    0.011995|
|         256|   -4.677494|   -6.980202|    0.823924|    0.011994|
|         257|   -4.681784|   -6.981355|    0.823913|    0.011992|
|         258|   -4.685977|   -6.982332|    0.823904|    0.011991|
|         259|   -4.690066|   -6.983181|    0.823895|    0.011989|
|         260|   -4.694042|   -6.983941|    0.823887|    0.011988|
|         261|   -4.697894|   -6.984640|    0.823880|    0.011986|
|         262|   -4.701607|   -6.985296|    0.823873|    0.011985|
|         263|   -4.705162|   -6.985909|    0.823868|    0.011984|
|         264|   -4.708537|   -6.986472|    0.823863|    0.011982|
|         265|   -4.711705|   -6.986964|    0.823859|    0.011981|
|         266|   -4.714636|   -6.987361|    0.823855|    0.011980|
|         267|   -4.717301|   -6.987631|    0.823852|    0.011979|
|         268|   -4.719666|   -6.987743|    0.823850|    0.011978|
|         269|   -4.721699|   -6.987668|    0.823848|    0.011977|
|         270|   -4.723370|   -6.987376|    0.823846|    0.011976|
|         271|   -4.724651|   -6.986845|    0.823845|    0.011975|
|         272|   -4.725518|   -6.986065|    0.823843|    0.011974|
|         273|   -4.725954|   -6.985043|    0.823842|    0.011973|
|         274|   -4.725948|   -6.983799|    0.823841|    0.011973|
|         275|   -4.725495|   -6.982371|    0.823841|    0.011972|
|         276|   -4.724599|   -6.980803|    0.823840|    0.011971|
|         277|   -4.723273|   -6.979150|    0.823839|    0.011970|
|         278|   -4.721535|   -6.977472|    0.823838|    0.011970|
|         279|   -4.719414|   -6.975837|    0.823837|    0.011969|
|         280|   -4.716942|   -6.974307|    0.823836|    0.011968|
|         281|   -4.714158|   -6.972938|    0.823835|    0.011968|
|         282|   -4.711104|   -6.971788|    0.823834|    0.011967|
|         283|   -4.707826|   -6.970907|    0.823833|    0.011967|
|         284|   -4.704370|   -6.970339|    0.823831|    0.011966|
|         285|   -4.700785|   -6.970113|    0.823829|    0.011966|
|         286|   -4.697117|   -6.970250|    0.823828|    0.011965|
|         287|   -4.693411|   -6.970756|    0.823826|    0.011965|
|         288|   -4.689710|   -6.971625|    0.823824|    0.011964|
|         289|   -4.686056|   -6.972835|    0.823822|    0.011964|
|         290|   -4.682485|   -6.974346|    0.823820|    0.011963|
|         291|   -4.679032|   -6.976116|    0.823818|    0.011963|
|         292|   -4.675727|   -6.978096|    0.823816|    0.011963|
|         293|   -4.672599|   -6.980228|    0.823814|    0.011962|
|         294|   -4.669670|   -6.982449|    0.823813|    0.011962|
|         295|   -4.666961|   -6.984692|    0.823811|    0.011962|
|         296|   -4.664490|   -6.986894|    0.823809|    0.011962|
|         297|   -4.662271|   -6.988994|    0.823808|    0.011962|
|         298|   -4.660316|   -6.990938|    0.823806|    0.011962|
|         299|   -4.658635|   -6.992678|    0.823805|    0.011962|
|         300|   -4.657234|   -6.994175|    0.823804|    0.011962|
|         301|   -4.656117|   -6.995403|    0.823803|    0.011977|
+-----------------------------------------------------------------------+
|Fixed CL Mode                           |Value                         |
+-----------------------------------------------------------------------+
|Current CL                              |0.823803                      |
|Target CL                               |0.824                         |
|Previous AOA                            |2.78791                       |
|Changed AoA by                          |0.000980449                   |
+-----------------------------------------------------------------------+
+----------------------------------------------------------------+
|  Inner_Iter|    rms[Rho]|     rms[nu]|          CL|          CD|
+----------------------------------------------------------------+
|         302|   -3.201661|   -6.949339|    0.823802|    0.011977|
|         303|   -3.585674|   -6.973106|    0.823801|    0.011977|
|         304|   -3.829874|   -6.980670|    0.823801|    0.011978|
|         305|   -3.909044|   -6.984640|    0.823800|    0.011978|
|         306|   -3.961817|   -6.987064|    0.823800|    0.011979|
|         307|   -4.028977|   -6.988523|    0.823800|    0.011980|
|         308|   -4.110193|   -6.989258|    0.823800|    0.011981|
|         309|   -4.191820|   -6.989438|    0.823800|    0.011981|
|         310|   -4.257959|   -6.989198|    0.823800|    0.011982|
|         311|   -4.302727|   -6.988626|    0.823800|    0.011983|
|         312|   -4.330075|   -6.987806|    0.823800|    0.011985|
|         313|   -4.345068|   -6.986846|    0.823800|    0.011986|
|         314|   -4.351686|   -6.985856|    0.823800|    0.011987|
|         315|   -4.354606|   -6.984914|    0.823799|    0.011988|
|         316|   -4.358684|   -6.984055|    0.823799|    0.011989|
|         317|   -4.367052|   -6.983285|    0.823799|    0.011991|
|         318|   -4.380249|   -6.982610|    0.823798|    0.011992|
|         319|   -4.396685|   -6.982043|    0.823797|    0.011994|
|         320|   -4.413873|   -6.981609|    0.823796|    0.011995|
|         321|   -4.429861|   -6.981328|    0.823795|    0.011996|
|         322|   -4.444100|   -6.981212|    0.823794|    0.011998|
|         323|   -4.457257|   -6.981268|    0.823793|    0.011999|
|         324|   -4.470342|   -6.981499|    0.823791|    0.012001|
|         325|   -4.483942|   -6.981911|    0.823789|    0.012002|
|         326|   -4.498002|   -6.982519|    0.823787|    0.012004|
|         327|   -4.512011|   -6.983336|    0.823785|    0.012005|
|         328|   -4.525315|   -6.984378|    0.823782|    0.012007|
|         329|   -4.537338|   -6.985658|    0.823780|    0.012008|
|         330|   -4.547697|   -6.987190|    0.823777|    0.012009|
|         331|   -4.556260|   -6.988989|    0.823774|    0.012010|
|         332|   -4.563180|   -6.991065|    0.823771|    0.012012|
|         333|   -4.568891|   -6.993417|    0.823768|    0.012013|
|         334|   -4.574013|   -6.996034|    0.823765|    0.012014|
|         335|   -4.579202|   -6.998901|    0.823761|    0.012015|
|         336|   -4.584990|   -7.001997|    0.823758|    0.012016|
|         337|   -4.591686|   -7.005293|    0.823755|    0.012017|
|         338|   -4.599333|   -7.008757|    0.823751|    0.012018|
|         339|   -4.607718|   -7.012351|    0.823748|    0.012018|
|         340|   -4.616415|   -7.016040|    0.823745|    0.012019|
|         341|   -4.624872|   -7.019789|    0.823742|    0.012020|
|         342|   -4.632529|   -7.023566|    0.823739|    0.012020|
|         343|   -4.638954|   -7.027341|    0.823736|    0.012021|
|         344|   -4.643952|   -7.031085|    0.823733|    0.012021|
|         345|   -4.647615|   -7.034773|    0.823731|    0.012022|
|         346|   -4.650271|   -7.038384|    0.823729|    0.012022|
|         347|   -4.652371|   -7.041899|    0.823726|    0.012022|
|         348|   -4.654357|   -7.045304|    0.823725|    0.012022|
|         349|   -4.656560|   -7.048592|    0.823723|    0.012022|
|         350|   -4.659145|   -7.051757|    0.823722|    0.012023|
|         351|   -4.662112|   -7.054798|    0.823721|    0.012023|
|         352|   -4.665333|   -7.057722|    0.823721|    0.012022|
|         353|   -4.668604|   -7.060545|    0.823720|    0.012022|
|         354|   -4.671717|   -7.063290|    0.823721|    0.012022|
|         355|   -4.674501|   -7.065988|    0.823721|    0.012022|
|         356|   -4.676864|   -7.068671|    0.823722|    0.012022|
|         357|   -4.678796|   -7.071374|    0.823723|    0.012022|
|         358|   -4.680362|   -7.074133|    0.823725|    0.012021|
|         359|   -4.681672|   -7.076985|    0.823727|    0.012021|
|         360|   -4.682854|   -7.079962|    0.823729|    0.012021|
|         361|   -4.684029|   -7.083097|    0.823732|    0.012021|
|         362|   -4.685295|   -7.086425|    0.823735|    0.012020|
|         363|   -4.686723|   -7.089976|    0.823738|    0.012020|
|         364|   -4.688357|   -7.093777|    0.823742|    0.012020|
|         365|   -4.690225|   -7.097852|    0.823746|    0.012019|
|         366|   -4.692341|   -7.102219|    0.823750|    0.012019|
|         367|   -4.694718|   -7.106890|    0.823754|    0.012019|
|         368|   -4.697366|   -7.111871|    0.823759|    0.012018|
|         369|   -4.700301|   -7.117164|    0.823763|    0.012018|
|         370|   -4.703539|   -7.122757|    0.823767|    0.012018|
|         371|   -4.707097|   -7.128636|    0.823772|    0.012017|
|         372|   -4.710991|   -7.134775|    0.823776|    0.012017|
|         373|   -4.715234|   -7.141134|    0.823781|    0.012017|
|         374|   -4.719834|   -7.147672|    0.823785|    0.012016|
|         375|   -4.724795|   -7.154339|    0.823789|    0.012016|
|         376|   -4.730116|   -7.161076|    0.823793|    0.012016|
|         377|   -4.735794|   -7.167822|    0.823797|    0.012015|
|         378|   -4.741818|   -7.174511|    0.823800|    0.012015|
|         379|   -4.748178|   -7.181075|    0.823803|    0.012015|
|         380|   -4.754858|   -7.187466|    0.823806|    0.012015|
|         381|   -4.761839|   -7.193609|    0.823809|    0.012014|
|         382|   -4.769099|   -7.199435|    0.823811|    0.012014|
|         383|   -4.776611|   -7.204885|    0.823813|    0.012014|
|         384|   -4.784344|   -7.209911|    0.823814|    0.012014|
|         385|   -4.792262|   -7.214479|    0.823815|    0.012014|
|         386|   -4.800326|   -7.218570|    0.823816|    0.012014|
|         387|   -4.808490|   -7.222179|    0.823817|    0.012013|
|         388|   -4.816706|   -7.225319|    0.823817|    0.012013|
|         389|   -4.824920|   -7.228014|    0.823817|    0.012013|
|         390|   -4.833074|   -7.230302|    0.823816|    0.012013|
|         391|   -4.841109|   -7.232234|    0.823816|    0.012013|
|         392|   -4.848963|   -7.233866|    0.823815|    0.012013|
|         393|   -4.856572|   -7.235266|    0.823813|    0.012013|
|         394|   -4.863873|   -7.236503|    0.823812|    0.012013|
|         395|   -4.870803|   -7.237647|    0.823810|    0.012014|
|         396|   -4.877305|   -7.238769|    0.823809|    0.012014|
|         397|   -4.883325|   -7.239935|    0.823807|    0.012014|
|         398|   -4.888815|   -7.241206|    0.823805|    0.012014|
|         399|   -4.893736|   -7.242636|    0.823802|    0.012014|
|         400|   -4.898060|   -7.244272|    0.823800|    0.012015|
|         401|   -4.901769|   -7.246155|    0.823798|    0.012029|
+-----------------------------------------------------------------------+
|Fixed CL Mode                           |Value                         |
+-----------------------------------------------------------------------+
|Current CL                              |0.823798                      |
|Target CL                               |0.824                         |
|Previous AOA                            |2.78889                       |
|Changed AoA by                          |0.000999091                   |
+-----------------------------------------------------------------------+
+----------------------------------------------------------------+
|  Inner_Iter|    rms[Rho]|     rms[nu]|          CL|          CD|
+----------------------------------------------------------------+
|         402|   -3.193695|   -7.120449|    0.823795|    0.012029|
|         403|   -3.577514|   -7.178931|    0.823793|    0.012030|
|         404|   -3.820088|   -7.200784|    0.823790|    0.012030|
|         405|   -3.898415|   -7.214695|    0.823788|    0.012030|
|         406|   -3.951925|   -7.225753|    0.823785|    0.012031|
|         407|   -4.021162|   -7.235316|    0.823782|    0.012031|
|         408|   -4.106414|   -7.243811|    0.823780|    0.012031|
|         409|   -4.194914|   -7.251493|    0.823777|    0.012032|
|         410|   -4.270444|   -7.258547|    0.823775|    0.012032|
|         411|   -4.325101|   -7.265035|    0.823772|    0.012032|
|         412|   -4.360809|   -7.271023|    0.823770|    0.012032|
|         413|   -4.381501|   -7.276712|    0.823767|    0.012033|
|         414|   -4.390936|   -7.282372|    0.823765|    0.012033|
|         415|   -4.394642|   -7.288194|    0.823763|    0.012033|
|         416|   -4.398843|   -7.294223|    0.823761|    0.012033|
|         417|   -4.407719|   -7.300413|    0.823759|    0.012034|
|         418|   -4.422240|   -7.306710|    0.823757|    0.012034|
|         419|   -4.440713|   -7.313118|    0.823755|    0.012034|
|         420|   -4.460253|   -7.319678|    0.823753|    0.012034|
|         421|   -4.478502|   -7.326418|    0.823752|    0.012034|
|         422|   -4.494769|   -7.333313|    0.823750|    0.012034|
|         423|   -4.509866|   -7.340282|    0.823749|    0.012035|
|         424|   -4.525034|   -7.347195|    0.823748|    0.012035|
|         425|   -4.540971|   -7.353933|    0.823747|    0.012035|
|         426|   -4.557532|   -7.360397|    0.823747|    0.012035|
|         427|   -4.573977|   -7.366501|    0.823746|    0.012035|
|         428|   -4.589379|   -7.372151|    0.823746|    0.012035|
|         429|   -4.602949|   -7.377287|    0.823745|    0.012035|
|         430|   -4.614202|   -7.381944|    0.823745|    0.012035|
|         431|   -4.623036|   -7.386106|    0.823746|    0.012035|
|         432|   -4.629775|   -7.389801|    0.823746|    0.012034|
|         433|   -4.635122|   -7.393100|    0.823746|    0.012034|
|         434|   -4.640006|   -7.396054|    0.823747|    0.012034|
|         435|   -4.645367|   -7.398697|    0.823748|    0.012034|
|         436|   -4.651950|   -7.401057|    0.823749|    0.012034|
|         437|   -4.660189|   -7.403139|    0.823750|    0.012034|
|         438|   -4.670164|   -7.404950|    0.823751|    0.012034|
|         439|   -4.681611|   -7.406498|    0.823752|    0.012033|
|         440|   -4.693970|   -7.407780|    0.823754|    0.012033|
|         441|   -4.706474|   -7.408833|    0.823756|    0.012033|
|         442|   -4.718305|   -7.409691|    0.823757|    0.012032|
|         443|   -4.728782|   -7.410398|    0.823759|    0.012032|
|         444|   -4.737559|   -7.411004|    0.823761|    0.012032|
|         445|   -4.744724|   -7.411556|    0.823764|    0.012031|
|         446|   -4.750752|   -7.412093|    0.823766|    0.012031|
|         447|   -4.756349|   -7.412654|    0.823768|    0.012031|
|         448|   -4.762236|   -7.413262|    0.823771|    0.012030|
|         449|   -4.768984|   -7.413910|    0.823774|    0.012030|
|         450|   -4.776917|   -7.414596|    0.823777|    0.012029|
|         451|   -4.786090|   -7.415297|    0.823780|    0.012029|
|         452|   -4.796329|   -7.415999|    0.823783|    0.012028|
|         453|   -4.807295|   -7.416698|    0.823787|    0.012028|
|         454|   -4.818580|   -7.417369|    0.823791|    0.012028|
|         455|   -4.829793|   -7.417990|    0.823795|    0.012027|
|         456|   -4.840635|   -7.418546|    0.823799|    0.012027|
|         457|   -4.850949|   -7.419017|    0.823803|    0.012026|
|         458|   -4.860720|   -7.419384|    0.823808|    0.012026|
|         459|   -4.870049|   -7.419638|    0.823813|    0.012025|
|         460|   -4.879099|   -7.419781|    0.823818|    0.012025|
|         461|   -4.888042|   -7.419824|    0.823823|    0.012024|
|         462|   -4.897020|   -7.419797|    0.823829|    0.012024|
|         463|   -4.906117|   -7.419743|    0.823835|    0.012023|
|         464|   -4.915362|   -7.419720|    0.823841|    0.012023|
|         465|   -4.924732|   -7.419795|    0.823847|    0.012022|
|         466|   -4.934174|   -7.420047|    0.823853|    0.012022|
|         467|   -4.943620|   -7.420562|    0.823859|    0.012022|
|         468|   -4.953007|   -7.421424|    0.823866|    0.012021|
|         469|   -4.962279|   -7.422720|    0.823872|    0.012021|
|         470|   -4.971393|   -7.424532|    0.823879|    0.012021|
|         471|   -4.980314|   -7.426930|    0.823885|    0.012020|
|         472|   -4.989016|   -7.429979|    0.823892|    0.012020|
|         473|   -4.997468|   -7.433721|    0.823898|    0.012020|
|         474|   -5.005640|   -7.438185|    0.823904|    0.012019|
|         475|   -5.013496|   -7.443374|    0.823910|    0.012019|
|         476|   -5.021001|   -7.449258|    0.823915|    0.012019|
|         477|   -5.028121|   -7.455779|    0.823920|    0.012019|
|         478|   -5.034827|   -7.462846|    0.823925|    0.012019|
|         479|   -5.041102|   -7.470329|    0.823930|    0.012019|
|         480|   -5.046938|   -7.478071|    0.823934|    0.012019|
|         481|   -5.052341|   -7.485873|    0.823938|    0.012019|
|         482|   -5.057332|   -7.493503|    0.823941|    0.012018|
|         483|   -5.061940|   -7.500703|    0.823943|    0.012018|
|         484|   -5.066206|   -7.507205|    0.823946|    0.012019|
|         485|   -5.070181|   -7.512762|    0.823947|    0.012019|
|         486|   -5.073917|   -7.517158|    0.823949|    0.012019|
|         487|   -5.077475|   -7.520237|    0.823949|    0.012019|
|         488|   -5.080915|   -7.521917|    0.823950|    0.012019|
|         489|   -5.084299|   -7.522204|    0.823949|    0.012019|
|         490|   -5.087687|   -7.521188|    0.823949|    0.012020|
|         491|   -5.091135|   -7.519040|    0.823947|    0.012020|
|         492|   -5.094699|   -7.515990|    0.823946|    0.012020|
|         493|   -5.098425|   -7.512309|    0.823944|    0.012021|
|         494|   -5.102357|   -7.508286|    0.823941|    0.012021|
|         495|   -5.106531|   -7.504205|    0.823938|    0.012022|
|         496|   -5.110976|   -7.500336|    0.823935|    0.012022|
|         497|   -5.115714|   -7.496920|    0.823932|    0.012023|
|         498|   -5.120761|   -7.494164|    0.823928|    0.012023|
|         499|   -5.126126|   -7.492236|    0.823924|    0.012024|
|         500|   -5.131808|   -7.491271|    0.823920|    0.012025|
|         501|   -5.137803|   -7.491361|    0.823915|    0.012031|
+-----------------------------------------------------------------------+
|Fixed CL Mode                           |Value                         |
+-----------------------------------------------------------------------+
|Current CL                              |0.823915                      |
|Target CL                               |0.824                         |
|Previous AOA                            |2.78989                       |
|Changed AoA by                          |0.00040136                    |
+-----------------------------------------------------------------------+
+----------------------------------------------------------------+
|  Inner_Iter|    rms[Rho]|     rms[nu]|          CL|          CD|
+----------------------------------------------------------------+
|         502|   -3.589650|   -7.418647|    0.823911|    0.012032|
|         503|   -3.971886|   -7.454782|    0.823906|    0.012033|
|         504|   -4.209828|   -7.468828|    0.823901|    0.012033|
|         505|   -4.285670|   -7.479162|    0.823896|    0.012034|
|         506|   -4.338260|   -7.488871|    0.823891|    0.012035|
|         507|   -4.406488|   -7.498574|    0.823886|    0.012036|
|         508|   -4.490346|   -7.508342|    0.823881|    0.012037|
|         509|   -4.577648|   -7.518117|    0.823876|    0.012037|
|         510|   -4.653363|   -7.527751|    0.823872|    0.012038|
|         511|   -4.710202|   -7.537011|    0.823867|    0.012039|
|         512|   -4.749491|   -7.545654|    0.823862|    0.012040|
|         513|   -4.774086|   -7.553514|    0.823858|    0.012041|
|         514|   -4.786818|   -7.560491|    0.823853|    0.012042|
|         515|   -4.792788|   -7.566482|    0.823849|    0.012042|
|         516|   -4.798332|   -7.571349|    0.823845|    0.012043|
|         517|   -4.807991|   -7.574965|    0.823842|    0.012044|
|         518|   -4.823077|   -7.577282|    0.823838|    0.012045|
|         519|   -4.842151|   -7.578357|    0.823835|    0.012046|
|         520|   -4.862492|   -7.578331|    0.823832|    0.012046|
|         521|   -4.881833|   -7.577388|    0.823829|    0.012047|
|         522|   -4.899498|   -7.575710|    0.823827|    0.012048|
|         523|   -4.916255|   -7.573468|    0.823825|    0.012049|
|         524|   -4.933257|   -7.570819|    0.823823|    0.012049|
|         525|   -4.951071|   -7.567922|    0.823822|    0.012050|
|         526|   -4.969370|   -7.564922|    0.823821|    0.012050|
|         527|   -4.987205|   -7.561961|    0.823820|    0.012051|
|         528|   -5.003462|   -7.559163|    0.823819|    0.012052|
|         529|   -5.017243|   -7.556633|    0.823819|    0.012052|
|         530|   -5.028069|   -7.554443|    0.823819|    0.012053|
|         531|   -5.035957|   -7.552649|    0.823819|    0.012053|
|         532|   -5.041408|   -7.551280|    0.823820|    0.012053|
|         533|   -5.045306|   -7.550335|    0.823820|    0.012054|
|         534|   -5.048711|   -7.549790|    0.823821|    0.012054|
|         535|   -5.052614|   -7.549591|    0.823823|    0.012054|
|         536|   -5.057739|   -7.549667|    0.823824|    0.012055|
|         537|   -5.064441|   -7.549936|    0.823826|    0.012055|
|         538|   -5.072690|   -7.550312|    0.823827|    0.012055|
|         539|   -5.082103|   -7.550708|    0.823829|    0.012055|
|         540|   -5.092018|   -7.551052|    0.823831|    0.012055|
|         541|   -5.101616|   -7.551283|    0.823833|    0.012055|
|         542|   -5.110090|   -7.551364|    0.823836|    0.012055|
|         543|   -5.116852|   -7.551278|    0.823838|    0.012055|
|         544|   -5.121699|   -7.551031|    0.823840|    0.012055|
|         545|   -5.124868|   -7.550650|    0.823843|    0.012054|
|         546|   -5.126945|   -7.550178|    0.823846|    0.012054|
|         547|   -5.128671|   -7.549669|    0.823848|    0.012054|
|         548|   -5.130746|   -7.549182|    0.823851|    0.012053|
|         549|   -5.133681|   -7.548782|    0.823854|    0.012053|
|         550|   -5.137733|   -7.548515|    0.823856|    0.012052|
|         551|   -5.142918|   -7.548416|    0.823859|    0.012052|
|         552|   -5.149054|   -7.548532|    0.823862|    0.012051|
|         553|   -5.155844|   -7.548896|    0.823865|    0.012050|
|         554|   -5.162955|   -7.549517|    0.823868|    0.012050|
|         555|   -5.170099|   -7.550388|    0.823871|    0.012049|
|         556|   -5.177080|   -7.551485|    0.823874|    0.012048|
|         557|   -5.183824|   -7.552766|    0.823877|    0.012047|
|         558|   -5.190366|   -7.554170|    0.823880|    0.012046|
|         559|   -5.196821|   -7.555626|    0.823884|    0.012046|
|         560|   -5.203340|   -7.557054|    0.823887|    0.012045|
|         561|   -5.210069|   -7.558373|    0.823890|    0.012044|
|         562|   -5.217125|   -7.559502|    0.823894|    0.012043|
|         563|   -5.224579|   -7.560370|    0.823898|    0.012041|
|         564|   -5.232456|   -7.560921|    0.823901|    0.012040|
|         565|   -5.240749|   -7.561118|    0.823905|    0.012039|
|         566|   -5.249425|   -7.560949|    0.823909|    0.012038|
|         567|   -5.258440|   -7.560427|    0.823913|    0.012037|
|         568|   -5.267751|   -7.559593|    0.823917|    0.012036|
|         569|   -5.277316|   -7.558511|    0.823921|    0.012035|
|         570|   -5.287097|   -7.557263|    0.823925|    0.012034|
|         571|   -5.297053|   -7.555942|    0.823929|    0.012033|
|         572|   -5.307142|   -7.554645|    0.823933|    0.012031|
|         573|   -5.317310|   -7.553488|    0.823937|    0.012030|
|         574|   -5.327491|   -7.552577|    0.823941|    0.012029|
|         575|   -5.337606|   -7.552008|    0.823945|    0.012028|
|         576|   -5.347561|   -7.551861|    0.823949|    0.012027|
|         577|   -5.357254|   -7.552201|    0.823953|    0.012026|
|         578|   -5.366577|   -7.553073|    0.823956|    0.012025|
|         579|   -5.375419|   -7.554503|    0.823960|    0.012024|
|         580|   -5.383676|   -7.556495|    0.823964|    0.012023|
|         581|   -5.391253|   -7.559032|    0.823967|    0.012022|
|         582|   -5.398071|   -7.562074|    0.823971|    0.012021|
|         583|   -5.404069|   -7.565560|    0.823974|    0.012020|
|         584|   -5.409212|   -7.569410|    0.823977|    0.012019|
|         585|   -5.413486|   -7.573524|    0.823980|    0.012019|
|         586|   -5.416907|   -7.577792|    0.823982|    0.012018|
|         587|   -5.419512|   -7.582090|    0.823985|    0.012017|
|         588|   -5.421364|   -7.586294|    0.823987|    0.012017|
|         589|   -5.422541|   -7.590281|    0.823989|    0.012016|
|         590|   -5.423140|   -7.593938|    0.823991|    0.012015|
|         591|   -5.423263|   -7.597171|    0.823992|    0.012015|
|         592|   -5.423019|   -7.599905|    0.823994|    0.012015|
|         593|   -5.422519|   -7.602100|    0.823995|    0.012014|
|         594|   -5.421866|   -7.603741|    0.823996|    0.012014|
|         595|   -5.421162|   -7.604849|    0.823997|    0.012014|
|         596|   -5.420498|   -7.605469|    0.823998|    0.012013|
|         597|   -5.419957|   -7.605670|    0.823998|    0.012013|
|         598|   -5.419610|   -7.605538|    0.823998|    0.012013|
|         599|   -5.419522|   -7.605163|    0.823998|    0.012013|
|         600|   -5.419746|   -7.604639|    0.823998|    0.012013|
|         601|   -5.420324|   -7.604053|    0.823998|    0.012013|
+-----------------------------------------------------------------------+
|Fixed CL Mode                           |Value                         |
+-----------------------------------------------------------------------+
|Current CL                              |0.823998                      |
|Target CL                               |0.824                         |
|Previous AOA                            |2.79029                       |
|Changed AoA by                          |8.56501e-06                   |
+-----------------------------------------------------------------------+
+----------------------------------------------------------------+
|  Inner_Iter|    rms[Rho]|     rms[nu]|          CL|          CD|
+----------------------------------------------------------------+
|         602|   -5.176694|   -7.603367|    0.823998|    0.012013|
|         603|   -5.346405|   -7.602891|    0.823997|    0.012014|
|         604|   -5.381401|   -7.602498|    0.823997|    0.012014|
|         605|   -5.388355|   -7.602221|    0.823996|    0.012014|
|         606|   -5.396314|   -7.602055|    0.823995|    0.012014|
|         607|   -5.406588|   -7.601968|    0.823994|    0.012015|
|         608|   -5.417497|   -7.601913|    0.823993|    0.012015|
|         609|   -5.427804|   -7.601828|    0.823992|    0.012015|
|         610|   -5.437150|   -7.601640|    0.823991|    0.012016|
|         611|   -5.445706|   -7.601269|    0.823990|    0.012016|
|         612|   -5.453703|   -7.600637|    0.823989|    0.012017|
|         613|   -5.461264|   -7.599671|    0.823987|    0.012017|
|         614|   -5.468447|   -7.598313|    0.823986|    0.012018|
|         615|   -5.475329|   -7.596521|    0.823985|    0.012019|
|         616|   -5.482020|   -7.594272|    0.823984|    0.012019|
|         617|   -5.488639|   -7.591570|    0.823983|    0.012020|
|         618|   -5.495277|   -7.588440|    0.823982|    0.012021|
|         619|   -5.501985|   -7.584930|    0.823981|    0.012021|
|         620|   -5.508773|   -7.581107|    0.823980|    0.012022|
|         621|   -5.515626|   -7.577054|    0.823979|    0.012023|
|         622|   -5.522500|   -7.572862|    0.823978|    0.012023|
|         623|   -5.529332|   -7.568628|    0.823977|    0.012024|
|         624|   -5.536036|   -7.564448|    0.823977|    0.012025|
|         625|   -5.542517|   -7.560415|    0.823976|    0.012026|
|         626|   -5.548681|   -7.556612|    0.823976|    0.012026|
|         627|   -5.554455|   -7.553115|    0.823975|    0.012027|
|         628|   -5.559801|   -7.549988|    0.823975|    0.012028|
|         629|   -5.564710|   -7.547280|    0.823974|    0.012029|
|         630|   -5.569208|   -7.545029|    0.823974|    0.012030|
|         631|   -5.573336|   -7.543259|    0.823974|    0.012030|
|         632|   -5.577146|   -7.541983|    0.823974|    0.012031|
|         633|   -5.580688|   -7.541199|    0.823974|    0.012032|
|         634|   -5.584006|   -7.540897|    0.823974|    0.012033|
|         635|   -5.587130|   -7.541055|    0.823974|    0.012033|
|         636|   -5.590082|   -7.541644|    0.823973|    0.012034|
|         637|   -5.592874|   -7.542627|    0.823973|    0.012035|
|         638|   -5.595512|   -7.543961|    0.823973|    0.012035|
|         639|   -5.598006|   -7.545600|    0.823973|    0.012036|
|         640|   -5.600365|   -7.547498|    0.823973|    0.012037|
|         641|   -5.602606|   -7.549604|    0.823973|    0.012037|
|         642|   -5.604748|   -7.551874|    0.823973|    0.012038|
|         643|   -5.606816|   -7.554264|    0.823973|    0.012038|
|         644|   -5.608836|   -7.556735|    0.823973|    0.012039|
|         645|   -5.610833|   -7.559256|    0.823973|    0.012039|
|         646|   -5.612831|   -7.561800|    0.823972|    0.012040|
|         647|   -5.614849|   -7.564348|    0.823972|    0.012040|
|         648|   -5.616902|   -7.566891|    0.823972|    0.012041|
|         649|   -5.618999|   -7.569425|    0.823971|    0.012041|
|         650|   -5.621146|   -7.571956|    0.823971|    0.012041|
|         651|   -5.623342|   -7.574492|    0.823970|    0.012041|
|         652|   -5.625585|   -7.577048|    0.823970|    0.012042|
|         653|   -5.627871|   -7.579640|    0.823969|    0.012042|
|         654|   -5.630197|   -7.582284|    0.823968|    0.012042|
|         655|   -5.632558|   -7.584999|    0.823967|    0.012042|
|         656|   -5.634951|   -7.587799|    0.823967|    0.012042|
|         657|   -5.637375|   -7.590700|    0.823966|    0.012042|
|         658|   -5.639828|   -7.593710|    0.823965|    0.012042|
|         659|   -5.642311|   -7.596838|    0.823964|    0.012042|
|         660|   -5.644825|   -7.600084|    0.823963|    0.012041|
|         661|   -5.647371|   -7.603450|    0.823962|    0.012041|
|         662|   -5.649953|   -7.606928|    0.823961|    0.012041|
|         663|   -5.652573|   -7.610513|    0.823960|    0.012041|
|         664|   -5.655234|   -7.614194|    0.823959|    0.012040|
|         665|   -5.657943|   -7.617959|    0.823959|    0.012040|
|         666|   -5.660702|   -7.621797|    0.823958|    0.012040|
|         667|   -5.663516|   -7.625695|    0.823957|    0.012039|
|         668|   -5.666390|   -7.629643|    0.823956|    0.012039|
|         669|   -5.669327|   -7.633633|    0.823955|    0.012038|
|         670|   -5.672330|   -7.637662|    0.823955|    0.012038|
|         671|   -5.675401|   -7.641726|    0.823954|    0.012037|
|         672|   -5.678540|   -7.645828|    0.823954|    0.012037|
|         673|   -5.681745|   -7.649974|    0.823953|    0.012036|
|         674|   -5.685012|   -7.654172|    0.823953|    0.012035|
|         675|   -5.688335|   -7.658433|    0.823952|    0.012035|
|         676|   -5.691705|   -7.662770|    0.823952|    0.012034|
|         677|   -5.695114|   -7.667197|    0.823952|    0.012033|
|         678|   -5.698547|   -7.671726|    0.823952|    0.012033|
|         679|   -5.701992|   -7.676369|    0.823952|    0.012032|
|         680|   -5.705432|   -7.681134|    0.823952|    0.012031|
|         681|   -5.708850|   -7.686026|    0.823952|    0.012031|
|         682|   -5.712231|   -7.691045|    0.823952|    0.012030|
|         683|   -5.715556|   -7.696185|    0.823952|    0.012029|
|         684|   -5.718808|   -7.701436|    0.823952|    0.012029|
|         685|   -5.721974|   -7.706781|    0.823953|    0.012028|
|         686|   -5.725040|   -7.712195|    0.823953|    0.012027|
|         687|   -5.727994|   -7.717649|    0.823954|    0.012027|
|         688|   -5.730828|   -7.723110|    0.823954|    0.012026|
|         689|   -5.733539|   -7.728540|    0.823955|    0.012025|
|         690|   -5.736125|   -7.733897|    0.823955|    0.012025|
|         691|   -5.738589|   -7.739142|    0.823956|    0.012024|
|         692|   -5.740936|   -7.744233|    0.823956|    0.012023|
|         693|   -5.743177|   -7.749133|    0.823957|    0.012023|
|         694|   -5.745325|   -7.753811|    0.823958|    0.012022|
|         695|   -5.747395|   -7.758239|    0.823958|    0.012022|
|         696|   -5.749405|   -7.762401|    0.823959|    0.012021|
|         697|   -5.751375|   -7.766285|    0.823960|    0.012021|
|         698|   -5.753325|   -7.769891|    0.823960|    0.012020|
|         699|   -5.755274|   -7.773228|    0.823961|    0.012020|
|         700|   -5.757242|   -7.776314|    0.823962|    0.012019|
|         701|   -5.759244|   -7.779174|    0.823963|    0.012022|
+-----------------------------------------------------------------------+
|Fixed CL Mode                           |Value                         |
+-----------------------------------------------------------------------+
|Current CL                              |0.823963                      |
|Target CL                               |0.824                         |
|Previous AOA                            |2.7903                        |
|Changed AoA by                          |0.00019075                    |
+-----------------------------------------------------------------------+
+----------------------------------------------------------------+
|  Inner_Iter|    rms[Rho]|     rms[nu]|          CL|          CD|
+----------------------------------------------------------------+
|         702|   -3.913048|   -7.718206|    0.823963|    0.012021|
|         703|   -4.298320|   -7.750526|    0.823964|    0.012021|
|         704|   -4.543579|   -7.762045|    0.823965|    0.012020|
|         705|   -4.621963|   -7.769321|    0.823965|    0.012020|
|         706|   -4.674735|   -7.775163|    0.823966|    0.012020|
|         707|   -4.743633|   -7.780226|    0.823967|    0.012020|
|         708|   -4.829145|   -7.784704|    0.823967|    0.012019|
|         709|   -4.918544|   -7.788712|    0.823968|    0.012019|
|         710|   -4.995432|   -7.792333|    0.823969|    0.012019|
|         711|   -5.051513|   -7.795618|    0.823969|    0.012019|
|         712|   -5.088387|   -7.798624|    0.823970|    0.012019|
|         713|   -5.109843|   -7.801476|    0.823971|    0.012019|
|         714|   -5.119664|   -7.804327|    0.823972|    0.012019|
|         715|   -5.123597|   -7.807294|    0.823972|    0.012018|
|         716|   -5.128154|   -7.810427|    0.823973|    0.012018|
|         717|   -5.137718|   -7.813728|    0.823974|    0.012018|
|         718|   -5.153317|   -7.817199|    0.823974|    0.012019|
|         719|   -5.173182|   -7.820849|    0.823975|    0.012019|
|         720|   -5.194224|   -7.824697|    0.823976|    0.012019|
|         721|   -5.213851|   -7.828753|    0.823976|    0.012019|
|         722|   -5.231233|   -7.833006|    0.823977|    0.012019|
|         723|   -5.247205|   -7.837420|    0.823978|    0.012019|
|         724|   -5.263131|   -7.841953|    0.823978|    0.012019|
|         725|   -5.279831|   -7.846559|    0.823979|    0.012020|
|         726|   -5.297227|   -7.851204|    0.823980|    0.012020|
|         727|   -5.314577|   -7.855855|    0.823980|    0.012020|
|         728|   -5.330906|   -7.860496|    0.823981|    0.012020|
|         729|   -5.345349|   -7.865117|    0.823981|    0.012021|
|         730|   -5.357336|   -7.869717|    0.823982|    0.012021|
|         731|   -5.366708|   -7.874299|    0.823983|    0.012021|
|         732|   -5.373773|   -7.878864|    0.823983|    0.012022|
|         733|   -5.379281|   -7.883419|    0.823984|    0.012022|
|         734|   -5.384258|   -7.887964|    0.823984|    0.012022|
|         735|   -5.389756|   -7.892496|    0.823985|    0.012023|
|         736|   -5.396627|   -7.897007|    0.823986|    0.012023|
|         737|   -5.405379|   -7.901487|    0.823986|    0.012024|
|         738|   -5.416128|   -7.905923|    0.823987|    0.012024|
|         739|   -5.428597|   -7.910302|    0.823987|    0.012024|
|         740|   -5.442160|   -7.914603|    0.823988|    0.012025|
|         741|   -5.455930|   -7.918814|    0.823988|    0.012025|
|         742|   -5.468921|   -7.922920|    0.823989|    0.012026|
|         743|   -5.480280|   -7.926913|    0.823990|    0.012026|
|         744|   -5.489530|   -7.930787|    0.823990|    0.012027|
|         745|   -5.496711|   -7.934546|    0.823991|    0.012027|
|         746|   -5.502342|   -7.938182|    0.823991|    0.012028|
|         747|   -5.507227|   -7.941682|    0.823992|    0.012028|
|         748|   -5.512196|   -7.945032|    0.823993|    0.012028|
|         749|   -5.517901|   -7.948224|    0.823993|    0.012029|
|         750|   -5.524700|   -7.951244|    0.823994|    0.012029|
|         751|   -5.532635|   -7.954078|    0.823995|    0.012030|
|         752|   -5.541480|   -7.956712|    0.823995|    0.012030|
|         753|   -5.550823|   -7.959132|    0.823996|    0.012031|
|         754|   -5.560177|   -7.961321|    0.823997|    0.012031|
|         755|   -5.569082|   -7.963271|    0.823998|    0.012031|
|         756|   -5.577203|   -7.964985|    0.823999|    0.012032|
|         757|   -5.584371|   -7.966473|    0.823999|    0.012032|
|         758|   -5.590589|   -7.967752|    0.824000|    0.012032|
|         759|   -5.595988|   -7.968849|    0.824001|    0.012033|
|         760|   -5.600765|   -7.969799|    0.824002|    0.012033|
|         761|   -5.605124|   -7.970647|    0.824004|    0.012033|
|         762|   -5.609224|   -7.971447|    0.824005|    0.012034|
|         763|   -5.613168|   -7.972258|    0.824006|    0.012034|
|         764|   -5.616997|   -7.973148|    0.824007|    0.012034|
|         765|   -5.620710|   -7.974187|    0.824008|    0.012034|
|         766|   -5.624279|   -7.975446|    0.824009|    0.012035|
|         767|   -5.627672|   -7.976994|    0.824011|    0.012035|
|         768|   -5.630865|   -7.978896|    0.824012|    0.012035|
|         769|   -5.633846|   -7.981215|    0.824013|    0.012035|
|         770|   -5.636617|   -7.983995|    0.824014|    0.012035|
|         771|   -5.639189|   -7.987276|    0.824015|    0.012035|
|         772|   -5.641579|   -7.991082|    0.824017|    0.012035|
|         773|   -5.643801|   -7.995424|    0.824018|    0.012035|
|         774|   -5.645864|   -8.000294|    0.824019|    0.012035|
|         775|   -5.647776|   -8.005667|    0.824020|    0.012035|
|         776|   -5.649539|   -8.011501|    0.824020|    0.012035|
|         777|   -5.651154|   -8.017732|    0.824021|    0.012035|
|         778|   -5.652623|   -8.024282|    0.824022|    0.012035|
|         779|   -5.653948|   -8.031056|    0.824023|    0.012035|
|         780|   -5.655135|   -8.037949|    0.824023|    0.012035|
|         781|   -5.656193|   -8.044845|    0.824024|    0.012035|
|         782|   -5.657133|   -8.051627|    0.824024|    0.012035|
|         783|   -5.657968|   -8.058183|    0.824024|    0.012034|
|         784|   -5.658713|   -8.064412|    0.824024|    0.012034|
|         785|   -5.659385|   -8.070229|    0.824024|    0.012034|
|         786|   -5.660001|   -8.075573|    0.824024|    0.012034|
|         787|   -5.660580|   -8.080410|    0.824024|    0.012033|
|         788|   -5.661140|   -8.084732|    0.824024|    0.012033|
|         789|   -5.661699|   -8.088561|    0.824024|    0.012033|
|         790|   -5.662277|   -8.091944|    0.824023|    0.012032|
|         791|   -5.662890|   -8.094952|    0.824023|    0.012032|
|         792|   -5.663555|   -8.097673|    0.824022|    0.012032|
|         793|   -5.664286|   -8.100201|    0.824021|    0.012031|
|         794|   -5.665096|   -8.102637|    0.824021|    0.012031|
|         795|   -5.665994|   -8.105076|    0.824020|    0.012030|
|         796|   -5.666988|   -8.107605|    0.824019|    0.012030|
|         797|   -5.668080|   -8.110298|    0.824018|    0.012030|
|         798|   -5.669271|   -8.113210|    0.824017|    0.012029|
|         799|   -5.670559|   -8.116379|    0.824017|    0.012029|
|         800|   -5.671936|   -8.119818|    0.824016|    0.012028|
|         801|   -5.673393|   -8.123521|    0.824015|    0.012027|
+-----------------------------------------------------------------------+
|Fixed CL Mode                           |Value                         |
+-----------------------------------------------------------------------+
|Current CL                              |0.824015                      |
|Target CL                               |0.824                         |
|Previous AOA                            |2.79049                       |
|Changed AoA by                          |-7.86356e-05                  |
+-----------------------------------------------------------------------+
+----------------------------------------------------------------+
|  Inner_Iter|    rms[Rho]|     rms[nu]|          CL|          CD|
+----------------------------------------------------------------+
|         802|   -4.297279|   -8.072132|    0.824014|    0.012026|
|         803|   -4.680079|   -8.102096|    0.824013|    0.012026|
|         804|   -4.921177|   -8.114298|    0.824012|    0.012026|
|         805|   -4.998956|   -8.122770|    0.824011|    0.012025|
|         806|   -5.051382|   -8.129792|    0.824010|    0.012025|
|         807|   -5.118045|   -8.135882|    0.824010|    0.012024|
|         808|   -5.198257|   -8.141171|    0.824009|    0.012024|
|         809|   -5.278373|   -8.145706|    0.824008|    0.012024|
|         810|   -5.342780|   -8.149470|    0.824007|    0.012023|
|         811|   -5.385854|   -8.152397|    0.824007|    0.012023|
|         812|   -5.411572|   -8.154439|    0.824006|    0.012023|
|         813|   -5.425031|   -8.155617|    0.824005|    0.012022|
|         814|   -5.430274|   -8.156022|    0.824005|    0.012022|
|         815|   -5.431879|   -8.155737|    0.824005|    0.012022|
|         816|   -5.434427|   -8.154836|    0.824004|    0.012021|
|         817|   -5.440759|   -8.153391|    0.824004|    0.012021|
|         818|   -5.451231|   -8.151498|    0.824003|    0.012021|
|         819|   -5.464219|   -8.149292|    0.824003|    0.012021|
|         820|   -5.477352|   -8.146929|    0.824003|    0.012020|
|         821|   -5.488850|   -8.144560|    0.824003|    0.012020|
|         822|   -5.498256|   -8.142318|    0.824003|    0.012020|
|         823|   -5.506192|   -8.140314|    0.824003|    0.012020|
|         824|   -5.513552|   -8.138638|    0.824003|    0.012020|
|         825|   -5.520875|   -8.137368|    0.824003|    0.012020|
|         826|   -5.528193|   -8.136583|    0.824004|    0.012019|
|         827|   -5.535220|   -8.136341|    0.824004|    0.012019|
|         828|   -5.541597|   -8.136690|    0.824004|    0.012019|
|         829|   -5.547042|   -8.137664|    0.824005|    0.012019|
|         830|   -5.551394|   -8.139284|    0.824005|    0.012019|
|         831|   -5.554632|   -8.141554|    0.824006|    0.012019|
|         832|   -5.556887|   -8.144469|    0.824006|    0.012019|
|         833|   -5.558435|   -8.148006|    0.824007|    0.012019|
|         834|   -5.559653|   -8.152124|    0.824007|    0.012019|
|         835|   -5.560929|   -8.156771|    0.824008|    0.012019|
|         836|   -5.562584|   -8.161877|    0.824009|    0.012019|
|         837|   -5.564812|   -8.167358|    0.824009|    0.012019|
|         838|   -5.567658|   -8.173117|    0.824010|    0.012019|
|         839|   -5.571031|   -8.179039|    0.824011|    0.012020|
|         840|   -5.574735|   -8.185001|    0.824011|    0.012020|
|         841|   -5.578522|   -8.190870|    0.824012|    0.012020|
|         842|   -5.582147|   -8.196510|    0.824013|    0.012020|
|         843|   -5.585437|   -8.201792|    0.824014|    0.012020|
|         844|   -5.588328|   -8.206593|    0.824014|    0.012020|
|         845|   -5.590881|   -8.210808|    0.824015|    0.012020|
|         846|   -5.593262|   -8.214352|    0.824015|    0.012021|
|         847|   -5.595685|   -8.217171|    0.824016|    0.012021|
|         848|   -5.598360|   -8.219243|    0.824016|    0.012021|
|         849|   -5.601445|   -8.220581|    0.824017|    0.012021|
|         850|   -5.605022|   -8.221233|    0.824017|    0.012021|
|         851|   -5.609092|   -8.221278|    0.824017|    0.012022|
|         852|   -5.613590|   -8.220818|    0.824018|    0.012022|
|         853|   -5.618413|   -8.219988|    0.824018|    0.012022|
|         854|   -5.623445|   -8.218919|    0.824018|    0.012022|
|         855|   -5.628584|   -8.217763|    0.824018|    0.012022|
|         856|   -5.633758|   -8.216669|    0.824018|    0.012023|
|         857|   -5.638932|   -8.215783|    0.824018|    0.012023|
|         858|   -5.644099|   -8.215244|    0.824018|    0.012023|
|         859|   -5.649280|   -8.215175|    0.824017|    0.012023|
|         860|   -5.654498|   -8.215689|    0.824017|    0.012023|
|         861|   -5.659777|   -8.216877|    0.824017|    0.012024|
|         862|   -5.665128|   -8.218813|    0.824016|    0.012024|
|         863|   -5.670543|   -8.221555|    0.824016|    0.012024|
|         864|   -5.676002|   -8.225137|    0.824015|    0.012024|
|         865|   -5.681468|   -8.229573|    0.824014|    0.012024|
|         866|   -5.686896|   -8.234855|    0.824014|    0.012024|
|         867|   -5.692238|   -8.240950|    0.824013|    0.012025|
|         868|   -5.697443|   -8.247796|    0.824012|    0.012025|
|         869|   -5.702460|   -8.255306|    0.824011|    0.012025|
|         870|   -5.707242|   -8.263358|    0.824011|    0.012025|
|         871|   -5.711743|   -8.271799|    0.824010|    0.012025|
|         872|   -5.715917|   -8.280444|    0.824009|    0.012025|
|         873|   -5.719724|   -8.289076|    0.824008|    0.012025|
|         874|   -5.723125|   -8.297455|    0.824007|    0.012025|
|         875|   -5.726085|   -8.305323|    0.824007|    0.012025|
|         876|   -5.728574|   -8.312424|    0.824006|    0.012026|
|         877|   -5.730571|   -8.318513|    0.824005|    0.012026|
|         878|   -5.732061|   -8.323385|    0.824004|    0.012026|
|         879|   -5.733039|   -8.326886|    0.824004|    0.012026|
|         880|   -5.733510|   -8.328936|    0.824003|    0.012026|
|         881|   -5.733488|   -8.329532|    0.824003|    0.012026|
|         882|   -5.732997|   -8.328751|    0.824002|    0.012026|
|         883|   -5.732067|   -8.326740|    0.824002|    0.012026|
|         884|   -5.730737|   -8.323702|    0.824001|    0.012026|
|         885|   -5.729052|   -8.319873|    0.824001|    0.012026|
|         886|   -5.727060|   -8.315503|    0.824000|    0.012026|
|         887|   -5.724812|   -8.310841|    0.824000|    0.012026|
|         888|   -5.722362|   -8.306117|    0.824000|    0.012026|
|         889|   -5.719763|   -8.301536|    0.824000|    0.012026|
|         890|   -5.717069|   -8.297270|    0.823999|    0.012026|
|         891|   -5.714330|   -8.293457|    0.823999|    0.012026|
|         892|   -5.711594|   -8.290201|    0.823999|    0.012026|
|         893|   -5.708909|   -8.287574|    0.823999|    0.012026|
|         894|   -5.706314|   -8.285619|    0.823999|    0.012026|
|         895|   -5.703850|   -8.284348|    0.823999|    0.012026|
|         896|   -5.701550|   -8.283752|    0.823999|    0.012026|
|         897|   -5.699445|   -8.283801|    0.823999|    0.012026|
|         898|   -5.697563|   -8.284444|    0.823999|    0.012026|
|         899|   -5.695925|   -8.285617|    0.823999|    0.012026|
|         900|   -5.694553|   -8.287242|    0.824000|    0.012026|
|         901|   -5.693463|   -8.289231|    0.824000|    0.012026|
|         902|   -5.692669|   -8.291491|    0.824000|    0.012026|
|         903|   -5.692182|   -8.293926|    0.824000|    0.012026|
|         904|   -5.692011|   -8.296439|    0.824000|    0.012026|
|         905|   -5.692164|   -8.298939|    0.824000|    0.012025|
|         906|   -5.692645|   -8.301339|    0.824001|    0.012025|
|         907|   -5.693458|   -8.303568|    0.824001|    0.012025|
[...]
|        5298|   -6.037521|   -7.943112|    0.824238|    0.012027|
|        5299|   -6.044171|   -7.946792|    0.824238|    0.012027|
|        5300|   -6.050438|   -7.950490|    0.824238|    0.012027|
|        5301|   -6.056283|   -7.954223|    0.824238|    0.012027|
|        5302|   -6.061680|   -7.958000|    0.824238|    0.012027|
|        5303|   -6.066611|   -7.961831|    0.824238|    0.012027|
|        5304|   -6.071072|   -7.965722|    0.824238|    0.012027|
|        5305|   -6.075069|   -7.969679|    0.824238|    0.012027|
|        5306|   -6.078622|   -7.973707|    0.824238|    0.012027|
|        5307|   -6.081757|   -7.977805|    0.824239|    0.012026|
|        5308|   -6.084512|   -7.981973|    0.824239|    0.012026|
|        5309|   -6.086934|   -7.986211|    0.824239|    0.012026|
|        5310|   -6.089071|   -7.990519|    0.824239|    0.012026|
|        5311|   -6.090980|   -7.994899|    0.824239|    0.012026|
|        5312|   -6.092715|   -7.999355|    0.824239|    0.012026|
|        5313|   -6.094333|   -8.003891|    0.824239|    0.012026|
|        5314|   -6.095890|   -8.008512|    0.824239|    0.012027|
|        5315|   -6.097436|   -8.013227|    0.824239|    0.012027|
|        5316|   -6.099021|   -8.018042|    0.824239|    0.012027|
|        5317|   -6.100687|   -8.022965|    0.824240|    0.012027|
|        5318|   -6.102473|   -8.028002|    0.824240|    0.012027|
|        5319|   -6.104412|   -8.033159|    0.824240|    0.012027|
|        5320|   -6.106529|   -8.038443|    0.824240|    0.012027|
|        5321|   -6.108843|   -8.043858|    0.824240|    0.012027|
|        5322|   -6.111369|   -8.049407|    0.824240|    0.012027|
|        5323|   -6.114111|   -8.055093|    0.824240|    0.012027|
|        5324|   -6.117070|   -8.060915|    0.824241|    0.012027|
|        5325|   -6.120238|   -8.066873|    0.824241|    0.012027|
|        5326|   -6.123603|   -8.072963|    0.824241|    0.012027|
|        5327|   -6.127145|   -8.079180|    0.824241|    0.012027|
|        5328|   -6.130841|   -8.085517|    0.824241|    0.012027|
|        5329|   -6.134661|   -8.091966|    0.824241|    0.012027|
|        5330|   -6.138571|   -8.098517|    0.824241|    0.012028|
|        5331|   -6.142534|   -8.105157|    0.824242|    0.012028|
|        5332|   -6.146512|   -8.111873|    0.824242|    0.012028|
|        5333|   -6.150462|   -8.118653|    0.824242|    0.012028|
|        5334|   -6.154344|   -8.125482|    0.824242|    0.012028|
|        5335|   -6.158119|   -8.132346|    0.824242|    0.012028|
|        5336|   -6.161749|   -8.139230|    0.824242|    0.012028|
|        5337|   -6.165201|   -8.146123|    0.824242|    0.012028|
|        5338|   -6.168446|   -8.153010|    0.824243|    0.012028|
|        5339|   -6.171465|   -8.159881|    0.824243|    0.012028|
|        5340|   -6.174240|   -8.166728|    0.824243|    0.012028|
|        5341|   -6.176767|   -8.173543|    0.824243|    0.012029|
|        5342|   -6.179047|   -8.180319|    0.824243|    0.012029|
|        5343|   -6.181088|   -8.187051|    0.824243|    0.012029|
|        5344|   -6.182908|   -8.193735|    0.824243|    0.012029|
|        5345|   -6.184530|   -8.200369|    0.824243|    0.012029|
|        5346|   -6.185985|   -8.206952|    0.824243|    0.012029|
|        5347|   -6.187308|   -8.213485|    0.824243|    0.012029|
|        5348|   -6.188538|   -8.219967|    0.824243|    0.012029|
|        5349|   -6.189716|   -8.226402|    0.824244|    0.012029|
|        5350|   -6.190885|   -8.232791|    0.824244|    0.012029|
|        5351|   -6.192088|   -8.239139|    0.824244|    0.012029|
|        5352|   -6.193367|   -8.245447|    0.824244|    0.012029|
|        5353|   -6.194762|   -8.251720|    0.824244|    0.012029|
|        5354|   -6.196309|   -8.257961|    0.824244|    0.012029|
|        5355|   -6.198044|   -8.264173|    0.824244|    0.012029|
|        5356|   -6.199998|   -8.270360|    0.824244|    0.012029|
|        5357|   -6.202196|   -8.276522|    0.824244|    0.012029|
|        5358|   -6.204661|   -8.282662|    0.824244|    0.012029|
|        5359|   -6.207410|   -8.288780|    0.824244|    0.012029|
|        5360|   -6.210457|   -8.294876|    0.824244|    0.012029|
|        5361|   -6.213808|   -8.300948|    0.824244|    0.012029|
|        5362|   -6.217467|   -8.306997|    0.824244|    0.012029|
|        5363|   -6.221433|   -8.313019|    0.824244|    0.012029|
|        5364|   -6.225698|   -8.319013|    0.824244|    0.012029|
|        5365|   -6.230250|   -8.324976|    0.824244|    0.012029|
|        5366|   -6.235074|   -8.330907|    0.824244|    0.012029|
|        5367|   -6.240147|   -8.336802|    0.824244|    0.012029|
|        5368|   -6.245443|   -8.342663|    0.824244|    0.012029|
|        5369|   -6.250931|   -8.348486|    0.824244|    0.012029|
|        5370|   -6.256578|   -8.354269|    0.824243|    0.012029|
|        5371|   -6.262344|   -8.360007|    0.824243|    0.012029|
|        5372|   -6.268186|   -8.365699|    0.824243|    0.012029|
|        5373|   -6.274061|   -8.371345|    0.824243|    0.012029|
|        5374|   -6.279921|   -8.376945|    0.824243|    0.012029|
|        5375|   -6.285718|   -8.382502|    0.824243|    0.012029|
|        5376|   -6.291403|   -8.388018|    0.824243|    0.012029|
|        5377|   -6.296929|   -8.393497|    0.824243|    0.012029|
|        5378|   -6.302251|   -8.398944|    0.824243|    0.012029|
|        5379|   -6.307325|   -8.404364|    0.824243|    0.012028|
|        5380|   -6.312115|   -8.409764|    0.824243|    0.012028|
|        5381|   -6.316587|   -8.415151|    0.824243|    0.012028|
|        5382|   -6.320714|   -8.420532|    0.824243|    0.012028|
|        5383|   -6.324477|   -8.425914|    0.824243|    0.012028|
|        5384|   -6.327863|   -8.431305|    0.824243|    0.012028|
|        5385|   -6.330867|   -8.436711|    0.824243|    0.012028|
|        5386|   -6.333491|   -8.442139|    0.824243|    0.012028|
|        5387|   -6.335742|   -8.447592|    0.824243|    0.012028|
|        5388|   -6.337635|   -8.453074|    0.824243|    0.012028|
|        5389|   -6.339188|   -8.458587|    0.824243|    0.012028|
|        5390|   -6.340425|   -8.464129|    0.824243|    0.012027|
|        5391|   -6.341371|   -8.469697|    0.824243|    0.012027|
|        5392|   -6.342053|   -8.475285|    0.824243|    0.012027|
|        5393|   -6.342498|   -8.480885|    0.824243|    0.012027|
|        5394|   -6.342736|   -8.486485|    0.824244|    0.012027|
|        5395|   -6.342791|   -8.492072|    0.824244|    0.012027|
|        5396|   -6.342690|   -8.497629|    0.824244|    0.012027|
|        5397|   -6.342454|   -8.503136|    0.824244|    0.012027|
|        5398|   -6.342105|   -8.508574|    0.824244|    0.012027|
|        5399|   -6.341660|   -8.513918|    0.824244|    0.012027|
|        5400|   -6.341134|   -8.519147|    0.824244|    0.012026|
|        5401|   -6.340541|   -8.524235|    0.824244|    0.012026|
|        5402|   -6.339891|   -8.529160|    0.824244|    0.012026|
|        5403|   -6.339192|   -8.533899|    0.824245|    0.012026|
|        5404|   -6.338452|   -8.538431|    0.824245|    0.012026|
|        5405|   -6.337676|   -8.542738|    0.824245|    0.012026|
|        5406|   -6.336868|   -8.546805|    0.824245|    0.012026|
|        5407|   -6.336031|   -8.550621|    0.824245|    0.012026|
|        5408|   -6.335168|   -8.554179|    0.824245|    0.012026|
|        5409|   -6.334281|   -8.557474|    0.824246|    0.012026|
|        5410|   -6.333372|   -8.560508|    0.824246|    0.012026|
|        5411|   -6.332443|   -8.563284|    0.824246|    0.012025|
|        5412|   -6.331498|   -8.565812|    0.824246|    0.012025|
|        5413|   -6.330539|   -8.568101|    0.824246|    0.012025|
|        5414|   -6.329568|   -8.570167|    0.824246|    0.012025|
|        5415|   -6.328591|   -8.572023|    0.824246|    0.012025|
|        5416|   -6.327611|   -8.573686|    0.824247|    0.012025|
|        5417|   -6.326634|   -8.575174|    0.824247|    0.012025|
|        5418|   -6.325665|   -8.576502|    0.824247|    0.012025|
|        5419|   -6.324711|   -8.577688|    0.824247|    0.012025|
|        5420|   -6.323779|   -8.578745|    0.824247|    0.012025|
|        5421|   -6.322877|   -8.579688|    0.824247|    0.012025|
|        5422|   -6.322015|   -8.580526|    0.824247|    0.012025|
|        5423|   -6.321201|   -8.581271|    0.824247|    0.012025|
|        5424|   -6.320446|   -8.581934|    0.824247|    0.012025|
|        5425|   -6.319761|   -8.582523|    0.824248|    0.012025|
|        5426|   -6.319158|   -8.583045|    0.824248|    0.012025|
|        5427|   -6.318649|   -8.583506|    0.824248|    0.012025|
|        5428|   -6.318247|   -8.583911|    0.824248|    0.012025|
|        5429|   -6.317966|   -8.584267|    0.824248|    0.012025|
|        5430|   -6.317819|   -8.584578|    0.824248|    0.012025|
|        5431|   -6.317821|   -8.584851|    0.824248|    0.012025|
|        5432|   -6.317986|   -8.585093|    0.824248|    0.012025|
|        5433|   -6.318327|   -8.585311|    0.824248|    0.012025|
|        5434|   -6.318860|   -8.585515|    0.824248|    0.012025|
|        5435|   -6.319597|   -8.585712|    0.824248|    0.012025|
|        5436|   -6.320552|   -8.585915|    0.824248|    0.012025|
|        5437|   -6.321735|   -8.586135|    0.824248|    0.012025|
|        5438|   -6.323159|   -8.586383|    0.824248|    0.012025|
|        5439|   -6.324833|   -8.586673|    0.824248|    0.012025|
|        5440|   -6.326765|   -8.587018|    0.824248|    0.012025|
|        5441|   -6.328960|   -8.587430|    0.824248|    0.012025|
|        5442|   -6.331424|   -8.587923|    0.824248|    0.012025|
|        5443|   -6.334156|   -8.588508|    0.824248|    0.012025|
|        5444|   -6.337159|   -8.589197|    0.824248|    0.012025|
|        5445|   -6.340428|   -8.590002|    0.824248|    0.012025|
|        5446|   -6.343957|   -8.590931|    0.824248|    0.012025|
|        5447|   -6.347737|   -8.591995|    0.824248|    0.012025|
|        5448|   -6.351756|   -8.593200|    0.824248|    0.012026|
|        5449|   -6.355996|   -8.594554|    0.824248|    0.012026|
|        5450|   -6.360439|   -8.596061|    0.824248|    0.012026|
|        5451|   -6.365060|   -8.597725|    0.824248|    0.012026|
|        5452|   -6.369834|   -8.599548|    0.824248|    0.012026|
|        5453|   -6.374729|   -8.601530|    0.824248|    0.012026|
|        5454|   -6.379711|   -8.603673|    0.824247|    0.012026|
|        5455|   -6.384744|   -8.605972|    0.824247|    0.012026|
|        5456|   -6.389785|   -8.608427|    0.824247|    0.012026|
|        5457|   -6.394794|   -8.611033|    0.824247|    0.012026|
|        5458|   -6.399724|   -8.613785|    0.824247|    0.012026|
|        5459|   -6.404532|   -8.616678|    0.824247|    0.012026|
|        5460|   -6.409170|   -8.619708|    0.824247|    0.012026|
|        5461|   -6.413593|   -8.622868|    0.824247|    0.012026|
|        5462|   -6.417759|   -8.626152|    0.824246|    0.012027|
|        5463|   -6.421627|   -8.629553|    0.824246|    0.012027|
|        5464|   -6.425162|   -8.633066|    0.824246|    0.012027|
|        5465|   -6.428331|   -8.636683|    0.824246|    0.012027|
|        5466|   -6.431110|   -8.640396|    0.824246|    0.012027|
|        5467|   -6.433480|   -8.644200|    0.824246|    0.012027|
|        5468|   -6.435432|   -8.648086|    0.824245|    0.012027|
|        5469|   -6.436961|   -8.652047|    0.824245|    0.012027|
|        5470|   -6.438072|   -8.656075|    0.824245|    0.012027|
|        5471|   -6.438777|   -8.660162|    0.824245|    0.012027|
|        5472|   -6.439095|   -8.664301|    0.824245|    0.012027|
|        5473|   -6.439051|   -8.668483|    0.824245|    0.012027|
|        5474|   -6.438675|   -8.672699|    0.824244|    0.012027|
|        5475|   -6.438002|   -8.676942|    0.824244|    0.012027|
|        5476|   -6.437070|   -8.681201|    0.824244|    0.012027|
|        5477|   -6.435919|   -8.685468|    0.824244|    0.012027|
|        5478|   -6.434590|   -8.689733|    0.824244|    0.012027|
|        5479|   -6.433125|   -8.693988|    0.824243|    0.012027|
|        5480|   -6.431564|   -8.698221|    0.824243|    0.012027|
|        5481|   -6.429949|   -8.702424|    0.824243|    0.012027|
|        5482|   -6.428317|   -8.706587|    0.824243|    0.012027|
|        5483|   -6.426703|   -8.710701|    0.824243|    0.012027|
|        5484|   -6.425141|   -8.714756|    0.824242|    0.012027|
|        5485|   -6.423662|   -8.718746|    0.824242|    0.012027|
|        5486|   -6.422293|   -8.722662|    0.824242|    0.012027|
|        5487|   -6.421059|   -8.726498|    0.824242|    0.012027|
|        5488|   -6.419983|   -8.730249|    0.824242|    0.012027|
|        5489|   -6.419083|   -8.733910|    0.824242|    0.012027|
|        5490|   -6.418376|   -8.737479|    0.824241|    0.012027|
|        5491|   -6.417876|   -8.740953|    0.824241|    0.012027|
|        5492|   -6.417594|   -8.744333|    0.824241|    0.012027|
|        5493|   -6.417539|   -8.747620|    0.824241|    0.012027|
|        5494|   -6.417719|   -8.750815|    0.824241|    0.012027|
|        5495|   -6.418137|   -8.753923|    0.824241|    0.012027|
|        5496|   -6.418798|   -8.756947|    0.824240|    0.012027|
|        5497|   -6.419703|   -8.759893|    0.824240|    0.012027|
|        5498|   -6.420852|   -8.762767|    0.824240|    0.012027|
|        5499|   -6.422243|   -8.765575|    0.824240|    0.012013|
+-----------------------------------------------------------------------+
|Fixed CL Mode (Finite Difference)       |Value                         |
+-----------------------------------------------------------------------+
|Delta CL / Delta AoA                    |0.239872                      |
|Delta CD / Delta CL                     |0.0173076                     |
|Delta CMz / Delta CL                    |-0.000905189                  |
+-----------------------------------------------------------------------+
Writing Flow Meta-Data file: flow.meta

----------------------------- Solver Exit -------------------------------

Maximum number of iterations reached (ITER = 5500) before convergence.
+-----------------------------------------------------------------------+
|      Convergence Field     |     Value    |   Criterion  |  Converged |
+-----------------------------------------------------------------------+
|                    rms[Rho]|      -6.42224|         < -12|          No|
+-----------------------------------------------------------------------+
-------------------------------------------------------------------------

--------------------------- Finalizing Solver ---------------------------
Deleted CNumerics container.
Deleted CIntegration container.
Deleted CSolver container.
Deleted CIteration container.
Deleted CInterface container.
Deleted CGeometry container.
Deleted CFreeFormDefBox class.
Deleted CSurfaceMovement class.
Deleted CVolumetricMovement class.
Deleted CConfig container.
Deleted nInst container.
Deleted COutput class.
-------------------------------------------------------------------------

------------------------- Exit Success (SU2_CFD) ------------------------


-------------------------------------------------------------------------
|    ___ _   _ ___                                                      |
|   / __| | | |_  )   Release 8.0.0 "Harrier"                           |
|   \__ \ |_| |/ /                                                      |
|   |___/\___//___|   Suite (Solution Exporting Code)                   |
|                                                                       |
-------------------------------------------------------------------------
| SU2 Project Website: https://su2code.github.io                        |
|                                                                       |
| The SU2 Project is maintained by the SU2 Foundation                   |
| (http://su2foundation.org)                                            |
-------------------------------------------------------------------------
| Copyright 2012-2023, SU2 Contributors                                 |
|                                                                       |
| SU2 is free software; you can redistribute it and/or                  |
| modify it under the terms of the GNU Lesser General Public            |
| License as published by the Free Software Foundation; either          |
| version 2.1 of the License, or (at your option) any later version.    |
|                                                                       |
| SU2 is distributed in the hope that it will be useful,                |
| but WITHOUT ANY WARRANTY; without even the implied warranty of        |
| MERCHANTABILITY or FITNESS FOR A PARTICULAR PURPOSE. See the GNU      |
| Lesser General Public License for more details.                       |
|                                                                       |
| You should have received a copy of the GNU Lesser General Public      |
| License along with SU2. If not, see <http://www.gnu.org/licenses/>.   |
-------------------------------------------------------------------------

----------------- Physical Case Definition ( Zone 0 ) -------------------
Input mesh file name: mesh_RAE2822_turb_deform.su2

-------------------- Output Information ( Zone 0 ) ----------------------
The tabular file format is CSV (.csv).
Flow variables file name: flow.

------------- Config File Boundary Information ( Zone 0 ) ---------------
+-----------------------------------------------------------------------+
|                        Marker Type|                        Marker Name|
+-----------------------------------------------------------------------+
|                          Far-field|                           FARFIELD|
+-----------------------------------------------------------------------+
|                     Heat flux wall|                            AIRFOIL|
+-----------------------------------------------------------------------+
Two dimensional problem.
13937 grid points before partitioning.
22842 volume elements before partitioning.
2 surface markers.
192 boundary elements in index 0 (Marker = AIRFOIL).
40 boundary elements in index 1 (Marker = FARFIELD).
Executing the partitioning functions.
Building the graph adjacency structure.
Calling ParMETIS... graph partitioning complete (831 edge cuts).
Distributing ParMETIS coloring.
Rebalancing vertices.
Rebalancing volume element connectivity.
Rebalancing markers and surface elements.
14875 vertices including ghost points. 
23674 interior elements including halo cells. 
18780 triangles.
4894 quadrilaterals.
Establishing MPI communication patterns.
Identify vertices.
Storing a mapping from global to local point index.

------------------------- Solution Postprocessing -----------------------
Reading and storing the solution from restart_flow.
Volume output fields: COORDINATES, SOLUTION
  Info: Ignoring the following screen output fields:
  RMS_DENSITY, RMS_NU_TILDE, LIFT, DRAG
Screen output fields: INNER_ITER
  Info: Ignoring the following history output groups:
  RMS_RES, AERO_COEFF
History output group(s): ITER
Warning: No (valid) fields chosen for convergence monitoring. Convergence monitoring inactive.
Warning: No (valid) fields chosen for time convergence monitoring. Time convergence monitoring inactive.
|Paraview                           |flow.vtu                           |
|Paraview surface                   |surface_flow.vtu                   |
|CSV file                           |surface_flow.csv                   |

------------------------- Finalize Solver -------------------------
Deleted CGeometry container.
Deleted CSolver class.
Deleted CConfig container.
Deleted COutput class.

Completed in 0.016615 seconds on 6 cores.

------------------------- Exit Success (SU2_SOL) ------------------------

