
-------------------------------------------------------------------------
|    ___ _   _ ___                                                      |
|   / __| | | |_  )   Release 8.0.0 "Harrier"                           |
|   \__ \ |_| |/ /                                                      |
|   |___/\___//___|   Suite (Computational Fluid Dynamics Code)         |
|                                                                       |
-------------------------------------------------------------------------
| SU2 Project Website: https://su2code.github.io                        |
|                                                                       |
| The SU2 Project is maintained by the SU2 Foundation                   |
| (http://su2foundation.org)                                            |
-------------------------------------------------------------------------
| Copyright 2012-2023, SU2 Contributors                                 |
|                                                                       |
| SU2 is free software; you can redistribute it and/or                  |
| modify it under the terms of the GNU Lesser General Public            |
| License as published by the Free Software Foundation; either          |
| version 2.1 of the License, or (at your option) any later version.    |
|                                                                       |
| SU2 is distributed in the hope that it will be useful,                |
| but WITHOUT ANY WARRANTY; without even the implied warranty of        |
| MERCHANTABILITY or FITNESS FOR A PARTICULAR PURPOSE. See the GNU      |
| Lesser General Public License for more details.                       |
|                                                                       |
| You should have received a copy of the GNU Lesser General Public      |
| License along with SU2. If not, see <http://www.gnu.org/licenses/>.   |
-------------------------------------------------------------------------

Parsing config file for zone 0

----------------- Physical Case Definition ( Zone 0 ) -------------------
Compressible RANS equations.
Turbulence model: Menter's k-omega SST-2003m with no production modification.
Hybrid RANS/LES: No Hybrid RANS/LES
Mach number: 0.729.
Angle of attack (AoA): 2 deg, and angle of sideslip (AoS): 0 deg.
Reynolds number: 6.5e+06. Reference length 1.
Reading and writing binary SU2 native restart files.
Read flow solution from: restart_flow.dat.
Dimensional simulation.
The reference area is 1 m^2.
The semi-span will be computed using the max y(3D) value.
The reference length is 1 m.
Reference origin for moment evaluation is (0.25, 0, 0).
Surface(s) where the force coefficients are evaluated: AIRFOIL.

Surface(s) plotted in the output file: AIRFOIL.
Input mesh file name: Mesh.su2

--------------- Space Numerical Integration ( Zone 0 ) ------------------
Roe (with entropy fix = 0.001) solver for the flow inviscid terms.
Standard Roe without low-dissipation function.
Second order integration in space, with slope limiter.
Venkatakrishnan slope-limiting method, with constant: 0.03.
The reference element size is: 1. 
Scalar upwind solver for the turbulence model.
First order integration in space.
Average of gradients with correction (viscous flow terms).
Average of gradients with correction (viscous turbulence terms).
Gradient for upwind reconstruction: inverse-distance weighted Least-Squares.
Gradient for viscous and source terms: inverse-distance weighted Least-Squares.

--------------- Time Numerical Integration  ( Zone 0 ) ------------------
Local time stepping (steady state simulation).
Euler implicit method for the flow equations.
FGMRES is used for solving the linear system.
Using a ILU(0) preconditioning.
Convergence criteria of the linear solver: 1e-06.
Max number of linear iterations: 10.
CFL adaptation. Factor down: 0.5, factor up: 1.1,
                lower limit: 1, upper limit: 1000,
                acceptable linear residual: 0.001.
Courant-Friedrichs-Lewy number:        2
Euler implicit time integration for the turbulence model.

------------------ Convergence Criteria  ( Zone 0 ) ---------------------
Maximum number of solver subiterations: 5000.
Begin convergence monitoring at iteration 10.
Residual minimum value: 1e-14.
Cauchy series min. value: 1e-06.
Number of Cauchy elements: 100.
Begin windowed time average at iteration 0.

-------------------- Output Information ( Zone 0 ) ----------------------
File writing frequency: 
+------------------------------------+
|                     File| Frequency|
+------------------------------------+
|                  RESTART|       500|
|                 PARAVIEW|       500|
|         SURFACE_PARAVIEW|       500|
+------------------------------------+
Writing the convergence history file every 1 inner iterations.
Writing the screen convergence history every 1 inner iterations.
The tabular file format is CSV (.csv).
Convergence history file name: historySecond.
Forces breakdown file name: forces_breakdown.dat.
Surface file name: surface_flow.
Volume file name: flow.
Restart file name: restart_flow.dat.

------------- Config File Boundary Information ( Zone 0 ) ---------------
+-----------------------------------------------------------------------+
|                        Marker Type|                        Marker Name|
+-----------------------------------------------------------------------+
|                          Far-field|                           FARFIELD|
+-----------------------------------------------------------------------+
|                     Heat flux wall|                            AIRFOIL|
+-----------------------------------------------------------------------+

-------------------- Output Preprocessing ( Zone 0 ) --------------------

WARNING: SURFACE_PRESSURE_DROP can only be computed for at least 2 surfaces (outlet, inlet, ...)

Screen output fields: INNER_ITER, WALL_TIME, RMS_DENSITY, LIFT, DRAG, MIN_CFL, MAX_CFL, AVG_CFL
  Info: Ignoring the following history output groups:
  RESIDUALS, CFL
History output group(s): INNER_ITER, LIFT, DRAG
Convergence field(s): LIFT
Warning: No (valid) fields chosen for time convergence monitoring. Time convergence monitoring inactive.
  Info: Ignoring the following volume output fields/groups:
  RESIDUALS
Volume output fields: SOLUTION, PRIMITIVE, GRADIENTS, HESSIANS, EIGENVALUES, WALL_DISTANCE, COORDINATES

------------------- Geometry Preprocessing ( Zone 0 ) -------------------
Two dimensional problem.
46571 grid points before partitioning.
92741 volume elements before partitioning.
2 surface markers.
361 boundary elements in index 0 (Marker = AIRFOIL).
40 boundary elements in index 1 (Marker = FARFIELD).
Executing the partitioning functions.
Building the graph adjacency structure.
Calling ParMETIS... graph partitioning complete (1535 edge cuts).
Distributing ParMETIS coloring.
Rebalancing vertices.
Rebalancing volume element connectivity.
Rebalancing markers and surface elements.
48115 vertices including ghost points. 
94277 interior elements including halo cells. 
94277 triangles.
Establishing MPI communication patterns.
Setting point connectivity.
Renumbering points (Reverse Cuthill McKee Ordering).
Recomputing point connectivity.
Setting element connectivity.
Checking the numerical grid orientation.
All volume elements are correctly orientend.
All surface elements are correctly orientend.
Identifying edges and vertices.
Setting the control volume structure.
Area of the computational grid: 31301.3.
Searching for the closest normal neighbors to the surfaces.
Storing a mapping from global to local point index.
Compute the surface curvature.
Max K: 17434.1. Mean K: 49.5873. Standard deviation K: 869.483.
Checking for periodicity.
Computing mesh quality statistics for the dual control volumes.
+--------------------------------------------------------------+
|           Mesh Quality Metric|        Minimum|        Maximum|
+--------------------------------------------------------------+
|    Orthogonality Angle (deg.)|        35.9977|        89.7373|
|     CV Face Area Aspect Ratio|        1.00113|        1828.92|
|           CV Sub-Volume Ratio|        1.00005|        37.4237|
+--------------------------------------------------------------+
Finding max control volume width.
Communicating number of neighbors.
Wetted area = 2.03238 m.
Area projection in the x-plane = 0.123596 m, y-plane = 0.999907 m.
Max. coordinate in the x-direction = 1 m, y-direction = 0.0643503 m.
Min. coordinate in the x-direction = 0 m, y-direction = -0.0577812 m.
Computing wall distances.

-------------------- Solver Preprocessing ( Zone 0 ) --------------------
Viscous flow: Computing pressure using the ideal gas law
based on the free-stream temperature and a density computed
from the Reynolds number.
Force coefficients computed using free-stream values.

-- Models:
+------------------------------------------------------------------------------+
|          Viscosity Model|        Conductivity Model|              Fluid Model|
+------------------------------------------------------------------------------+
|               SUTHERLAND|          CONSTANT_PRANDTL|             STANDARD_AIR|
+------------------------------------------------------------------------------+
-- Fluid properties:
+------------------------------------------------------------------------------+
|                  Name|    Dim. value|    Ref. value|      Unit|Non-dim. value|
+------------------------------------------------------------------------------+
|        Ref. Viscosity|     1.716e-05|             1|   N.s/m^2|     1.716e-05|
|      Sutherland Temp.|        273.15|             1|         K|        273.15|
|     Sutherland Const.|         110.4|             1|         K|         110.4|
+------------------------------------------------------------------------------+
|        Prandtl (Lam.)|             -|             -|         -|          0.72|
|       Prandtl (Turb.)|             -|             -|         -|           0.9|
+------------------------------------------------------------------------------+
|          Gas Constant|       287.058|             1|  N.m/kg.K|       287.058|
|      Spec. Heat Ratio|             -|             -|         -|           1.4|
+------------------------------------------------------------------------------+
-- Initial and free-stream conditions:
+------------------------------------------------------------------------------+
|                  Name|    Dim. value|    Ref. value|      Unit|Non-dim. value|
+------------------------------------------------------------------------------+
|       Static Pressure|       38779.2|             1|        Pa|       38779.2|
|               Density|      0.468824|             1|    kg/m^3|      0.468824|
|           Temperature|        288.15|             1|         K|        288.15|
|          Total Energy|        237791|             1|   m^2/s^2|        237791|
|            Velocity-X|       247.925|             1|       m/s|       247.925|
|            Velocity-Y|       8.65775|             1|       m/s|       8.65775|
|    Velocity Magnitude|       248.077|             1|       m/s|       248.077|
+------------------------------------------------------------------------------+
|             Viscosity|    1.7893e-05|             1|   N.s/m^2|    1.7893e-05|
|          Conductivity|             -|             1|   W/m^2.K|             -|
|     Turb. Kin. Energy|       230.782|             1|   m^2/s^2|       230.782|
|     Spec. Dissipation|        604687|             1|       1/s|        604687|
+------------------------------------------------------------------------------+
|           Mach Number|             -|             -|         -|         0.729|
|       Reynolds Number|             -|             -|         -|       6.5e+06|
+------------------------------------------------------------------------------+
Initialize Jacobian structure (Navier-Stokes). MG level: 0.
Initialize Jacobian structure (SST model).

------------------- Numerics Preprocessing ( Zone 0 ) -------------------

----------------- Integration Preprocessing ( Zone 0 ) ------------------

------------------- Iteration Preprocessing ( Zone 0 ) ------------------
Euler/Navier-Stokes/RANS fluid iteration.

------------------------------ Begin Solver -----------------------------

Simulation Run using the Single-zone Driver
WARNING: SU2 was not compiled for an AVX-capable architecture. Performance could be better,
         see https://su2code.github.io/docs_v7/Build-SU2-Linux-MacOS/#compiler-optimizations
+-------------------------------------------------------------------------------------------------------+
|  Inner_Iter|   Time(sec)|    rms[Rho]|          CL|          CD|     Min CFL|     Max CFL|     Avg CFL|
+-------------------------------------------------------------------------------------------------------+
|           0|  1.0419e-01|   -3.156689|    0.700612|    0.012822|  2.2000e+00|  2.2000e+00|  2.2000e+00|
|           1|  1.0369e-01|   -3.110172|    0.700608|    0.012828|  2.4200e+00|  2.4200e+00|  2.4200e+00|
|           2|  1.2934e-01|   -3.075536|    0.701087|    0.012816|  2.6620e+00|  2.6620e+00|  2.6620e+00|
|           3|  1.7678e-01|   -3.025100|    0.701196|    0.012787|  2.9282e+00|  2.9282e+00|  2.9282e+00|
|           4|  1.9197e-01|   -3.008491|    0.701081|    0.012695|  3.2210e+00|  3.2210e+00|  3.2210e+00|
|           5|  1.7633e-01|   -2.981575|    0.700396|    0.012621|  3.5431e+00|  3.5431e+00|  3.5431e+00|
|           6|  1.6560e-01|   -2.949877|    0.700257|    0.012606|  3.8974e+00|  3.8974e+00|  3.8974e+00|
|           7|  1.5763e-01|   -2.935577|    0.700526|    0.012563|  4.2872e+00|  4.2872e+00|  4.2872e+00|
|           8|  1.5152e-01|   -2.905276|    0.700881|    0.012515|  4.7159e+00|  4.7159e+00|  4.7159e+00|
|           9|  1.4723e-01|   -2.906271|    0.700532|    0.012436|  5.1875e+00|  5.1875e+00|  5.1875e+00|
|          10|  1.6139e-01|   -2.897362|    0.699982|    0.012325|  5.7062e+00|  5.7062e+00|  5.7062e+00|
|          11|  1.8113e-01|   -2.876737|    0.699791|    0.012221|  6.2769e+00|  6.2769e+00|  6.2769e+00|
|          12|  1.7546e-01|   -2.872153|    0.700145|    0.012255|  6.9045e+00|  6.9045e+00|  6.9045e+00|
|          13|  1.7102e-01|   -2.841491|    0.700492|    0.012301|  7.5950e+00|  7.5950e+00|  7.5950e+00|
|          14|  1.6724e-01|   -2.852689|    0.700313|    0.012297|  8.3545e+00|  8.3545e+00|  8.3545e+00|
|          15|  1.6455e-01|   -2.839806|    0.699994|    0.012218|  9.1899e+00|  9.1899e+00|  9.1899e+00|
|          16|  1.6219e-01|   -2.826689|    0.700396|    0.012239|  1.0109e+01|  1.0109e+01|  1.0109e+01|
|          17|  1.6093e-01|   -2.829336|    0.700835|    0.012196|  1.1120e+01|  1.1120e+01|  1.1120e+01|
|          18|  1.7163e-01|   -2.803487|    0.700763|    0.012340|  1.2232e+01|  1.2232e+01|  1.2232e+01|
|          19|  1.7515e-01|   -2.814996|    0.700516|    0.012489|  1.3455e+01|  1.3455e+01|  1.3455e+01|
|          20|  1.7372e-01|   -2.809878|    0.699571|    0.012362|  1.4800e+01|  1.4800e+01|  1.4800e+01|
|          21|  1.7151e-01|   -2.806606|    0.700059|    0.012424|  1.6281e+01|  1.6281e+01|  1.6281e+01|
|          22|  1.6973e-01|   -2.805986|    0.700375|    0.012443|  1.7909e+01|  1.7909e+01|  1.7909e+01|
|          23|  1.6802e-01|   -2.786316|    0.700579|    0.012607|  1.9699e+01|  1.9699e+01|  1.9699e+01|
|          24|  1.6640e-01|   -2.788039|    0.700211|    0.012589|  2.1669e+01|  2.1669e+01|  2.1669e+01|
|          25|  1.6483e-01|   -2.778812|    0.699180|    0.012658|  2.3836e+01|  2.3836e+01|  2.3836e+01|
|          26|  1.6951e-01|   -2.776352|    0.699458|    0.012705|  2.6220e+01|  2.6220e+01|  2.6220e+01|
|          27|  1.7776e-01|   -2.777235|    0.700038|    0.012857|  2.8842e+01|  2.8842e+01|  2.8842e+01|
|          28|  1.7622e-01|   -2.766441|    0.700821|    0.013064|  3.1726e+01|  3.1726e+01|  3.1726e+01|
|          29|  1.7455e-01|   -2.768052|    0.700547|    0.012971|  3.4899e+01|  3.4899e+01|  3.4899e+01|
|          30|  1.7304e-01|   -2.758805|    0.699532|    0.013054|  3.8389e+01|  3.8389e+01|  3.8389e+01|
|          31|  1.7163e-01|   -2.758371|    0.700466|    0.013147|  4.2228e+01|  4.2228e+01|  4.2228e+01|
|          32|  1.7278e-01|   -2.764322|    0.701117|    0.013420|  4.6450e+01|  4.6450e+01|  4.6450e+01|
|          33|  1.7844e-01|   -2.748399|    0.701903|    0.013349|  5.1095e+01|  5.1095e+01|  5.1095e+01|
|          34|  1.7990e-01|   -2.752802|    0.702330|    0.013237|  5.6205e+01|  5.6205e+01|  5.6205e+01|
|          35|  1.7832e-01|   -2.735397|    0.702389|    0.013060|  6.1825e+01|  6.1825e+01|  6.1825e+01|
|          36|  1.7693e-01|   -2.747920|    0.702920|    0.013257|  6.8008e+01|  6.8008e+01|  6.8008e+01|
|          37|  1.7563e-01|   -2.747294|    0.703117|    0.013406|  7.4809e+01|  7.4809e+01|  7.4809e+01|
|          38|  1.7439e-01|   -2.738925|    0.703428|    0.013200|  8.2290e+01|  8.2290e+01|  8.2290e+01|
|          39|  1.7322e-01|   -2.721319|    0.703662|    0.012956|  9.0519e+01|  9.0519e+01|  9.0519e+01|
|          40|  1.7221e-01|   -2.719423|    0.703906|    0.012864|  9.9570e+01|  9.9570e+01|  9.9570e+01|
|          41|  1.7643e-01|   -2.709973|    0.704755|    0.013201|  1.0953e+02|  1.0953e+02|  1.0953e+02|
|          42|  1.7785e-01|   -2.715624|    0.704419|    0.013171|  1.2048e+02|  1.2048e+02|  1.2048e+02|
|          43|  1.7676e-01|   -2.701159|    0.704341|    0.012963|  1.3253e+02|  1.3253e+02|  1.3253e+02|
|          44|  1.7597e-01|   -2.724779|    0.706545|    0.012874|  1.4578e+02|  1.4578e+02|  1.4578e+02|
|          45|  1.7512e-01|   -2.706528|    0.705228|    0.012839|  1.6036e+02|  1.6036e+02|  1.6036e+02|
|          46|  1.7412e-01|   -2.717417|    0.705406|    0.013104|  1.7639e+02|  1.7639e+02|  1.7639e+02|
|          47|  1.7315e-01|   -2.705169|    0.706304|    0.013149|  1.9403e+02|  1.9403e+02|  1.9403e+02|
|          48|  1.7743e-01|   -2.720332|    0.707368|    0.012619|  1.9403e+02|  1.9403e+02|  1.9403e+02|
|          49|  1.7883e-01|   -2.706191|    0.708739|    0.012714|  2.1344e+02|  2.1344e+02|  2.1344e+02|
|          50|  1.7775e-01|   -2.717330|    0.708878|    0.013065|  2.3478e+02|  2.3478e+02|  2.3478e+02|
|          51|  1.7707e-01|   -2.716050|    0.709742|    0.013111|  2.3478e+02|  2.3478e+02|  2.3478e+02|
|          52|  1.7614e-01|   -2.718405|    0.710536|    0.012991|  2.3478e+02|  2.3478e+02|  2.3478e+02|
|          53|  1.7528e-01|   -2.704727|    0.710553|    0.012870|  2.5826e+02|  2.5826e+02|  2.5826e+02|
|          54|  1.7446e-01|   -2.705992|    0.711615|    0.013368|  2.8409e+02|  2.8409e+02|  2.8409e+02|
|          55|  1.7658e-01|   -2.705569|    0.712494|    0.013586|  2.8409e+02|  2.8409e+02|  2.8409e+02|
|          56|  1.7991e-01|   -2.704374|    0.712003|    0.013176|  2.8409e+02|  2.8409e+02|  2.8409e+02|
|          57|  1.7906e-01|   -2.697046|    0.712825|    0.013038|  3.1249e+02|  3.1249e+02|  3.1249e+02|
|          58|  1.7819e-01|   -2.699159|    0.714588|    0.013309|  3.1249e+02|  3.1249e+02|  3.1249e+02|
|          59|  1.7762e-01|   -2.712020|    0.715167|    0.013393|  3.1249e+02|  3.1249e+02|  3.1249e+02|
|          60|  1.7683e-01|   -2.708311|    0.716237|    0.013356|  3.1249e+02|  3.1249e+02|  3.1249e+02|
|          61|  1.7647e-01|   -2.701159|    0.716459|    0.013247|  3.4374e+02|  3.4374e+02|  3.4374e+02|
|          62|  1.7626e-01|   -2.701245|    0.717176|    0.013381|  3.4374e+02|  3.4374e+02|  3.4374e+02|
|          63|  1.7576e-01|   -2.697839|    0.717517|    0.013189|  3.7812e+02|  3.7812e+02|  3.7812e+02|
|          64|  1.7960e-01|   -2.691930|    0.719207|    0.013177|  3.7812e+02|  3.7812e+02|  3.7812e+02|
|          65|  1.7964e-01|   -2.682012|    0.717793|    0.013236|  3.7812e+02|  3.7812e+02|  3.7812e+02|
|          66|  1.7882e-01|   -2.686320|    0.718641|    0.013252|  4.1593e+02|  4.1593e+02|  4.1593e+02|
|          67|  1.7810e-01|   -2.695557|    0.719318|    0.013263|  4.5752e+02|  4.5752e+02|  4.5752e+02|
|          68|  1.7743e-01|   -2.695732|    0.719365|    0.013246|  5.0328e+02|  5.0328e+02|  5.0328e+02|
|          69|  1.7676e-01|   -2.687812|    0.718266|    0.012992|  5.5360e+02|  5.5360e+02|  5.5360e+02|
|          70|  1.7611e-01|   -2.677908|    0.718689|    0.013178|  6.0896e+02|  6.0896e+02|  6.0896e+02|
|          71|  1.7788e-01|   -2.668273|    0.717773|    0.013343|  6.6986e+02|  6.6986e+02|  6.6986e+02|
|          72|  1.7975e-01|   -2.668633|    0.717584|    0.013369|  7.3685e+02|  7.3685e+02|  7.3685e+02|
|          73|  1.7899e-01|   -2.659671|    0.718503|    0.013137|  7.3685e+02|  7.3685e+02|  7.3685e+02|
|          74|  1.7832e-01|   -2.665713|    0.718265|    0.013230|  7.3685e+02|  7.3685e+02|  7.3685e+02|
|          75|  1.7768e-01|   -2.679159|    0.717592|    0.013164|  7.3685e+02|  7.3685e+02|  7.3685e+02|
|          76|  1.7707e-01|   -2.683940|    0.717733|    0.013054|  7.3685e+02|  7.3685e+02|  7.3685e+02|
|          77|  1.7648e-01|   -2.682082|    0.717842|    0.012739|  7.3685e+02|  7.3685e+02|  7.3685e+02|
|          78|  1.7588e-01|   -2.674276|    0.716559|    0.012855|  7.3685e+02|  7.3685e+02|  7.3685e+02|
|          79|  1.7530e-01|   -2.671924|    0.714841|    0.012920|  7.3685e+02|  7.3685e+02|  7.3685e+02|
|          80|  1.7595e-01|   -2.681647|    0.715483|    0.012853|  7.3685e+02|  7.3685e+02|  7.3685e+02|
|          81|  1.7730e-01|   -2.660319|    0.715637|    0.012966|  7.3685e+02|  7.3685e+02|  7.3685e+02|
|          82|  1.7664e-01|   -2.672516|    0.714990|    0.013007|  7.3685e+02|  7.3685e+02|  7.3685e+02|
|          83|  1.7607e-01|   -2.674252|    0.714236|    0.012943|  3.6842e+02|  3.6842e+02|  3.6842e+02|
|          84|  1.7552e-01|   -2.678336|    0.714278|    0.012851|  4.0527e+02|  4.0527e+02|  4.0527e+02|
|          85|  1.7496e-01|   -2.654549|    0.714425|    0.013096|  4.4579e+02|  4.4579e+02|  4.4579e+02|
|          86|  1.7445e-01|   -2.662436|    0.713551|    0.012849|  4.9037e+02|  4.9037e+02|  4.9037e+02|
|          87|  1.7393e-01|   -2.660108|    0.712395|    0.012748|  5.3941e+02|  5.3941e+02|  5.3941e+02|
|          88|  1.7372e-01|   -2.655350|    0.712121|    0.012839|  5.9335e+02|  5.9335e+02|  5.9335e+02|
|          89|  1.7585e-01|   -2.601735|    0.713007|    0.012635|  6.5268e+02|  6.5268e+02|  6.5268e+02|
|          90|  1.7644e-01|   -2.611715|    0.713973|    0.013248|  7.1795e+02|  7.1795e+02|  7.1795e+02|
|          91|  1.7587e-01|   -2.623592|    0.713357|    0.012978|  7.8975e+02|  7.8975e+02|  7.8975e+02|
|          92|  1.7536e-01|   -2.618861|    0.712425|    0.012946|  8.6872e+02|  8.6872e+02|  8.6872e+02|
|          93|  1.7486e-01|   -2.580220|    0.713627|    0.012726|  9.5559e+02|  9.5559e+02|  9.5559e+02|
|          94|  1.7438e-01|   -2.601794|    0.712309|    0.012731|  1.0000e+03|  1.0000e+03|  1.0000e+03|
|          95|  1.7389e-01|   -2.585553|    0.708914|    0.013027|  1.0000e+03|  1.0000e+03|  1.0000e+03|
|          96|  1.7343e-01|   -2.554624|    0.710681|    0.013093|  1.0000e+03|  1.0000e+03|  1.0000e+03|
|          97|  1.7355e-01|   -2.467970|    0.713295|    0.012861|  1.0000e+03|  1.0000e+03|  1.0000e+03|
|          98|  1.7549e-01|   -2.474632|    0.713141|    0.012852|  1.0000e+03|  1.0000e+03|  1.0000e+03|
|          99|  1.7547e-01|   -2.496703|    0.712208|    0.012754|  1.0000e+03|  1.0000e+03|  1.0000e+03|
|         100|  1.7499e-01|   -2.466587|    0.713177|    0.012929|  1.0000e+00|  1.0000e+00|  1.0000e+00|
|         101|  1.7420e-01|   -2.413697|    0.713495|    0.012918|  1.1000e+00|  1.1000e+00|  1.1000e+00|
|         102|  1.7344e-01|   -2.511430|    0.713505|    0.012973|  1.2100e+00|  1.2100e+00|  1.2100e+00|
|         103|  1.7271e-01|   -2.572764|    0.713276|    0.012994|  1.3310e+00|  1.3310e+00|  1.3310e+00|
|         104|  1.7200e-01|   -2.663375|    0.713277|    0.012976|  1.4641e+00|  1.4641e+00|  1.4641e+00|
|         105|  1.7133e-01|   -2.662842|    0.713040|    0.012949|  1.6105e+00|  1.6105e+00|  1.6105e+00|
|         106|  1.7092e-01|   -2.752956|    0.712733|    0.012961|  1.7716e+00|  1.7716e+00|  1.7716e+00|
|         107|  1.7028e-01|   -2.751794|    0.712677|    0.013009|  1.9487e+00|  1.9487e+00|  1.9487e+00|
|         108|  1.6966e-01|   -2.795304|    0.712453|    0.013123|  2.1436e+00|  2.1436e+00|  2.1436e+00|
|         109|  1.6907e-01|   -2.853431|    0.712716|    0.013208|  2.3579e+00|  2.3579e+00|  2.3579e+00|
|         110|  1.6848e-01|   -2.854397|    0.712881|    0.013258|  2.5937e+00|  2.5937e+00|  2.5937e+00|
|         111|  1.6791e-01|   -2.914763|    0.712872|    0.013187|  2.8531e+00|  2.8531e+00|  2.8531e+00|
|         112|  1.6804e-01|   -2.891366|    0.712044|    0.013180|  3.1384e+00|  3.1384e+00|  3.1384e+00|
|         113|  1.6928e-01|   -2.828300|    0.711085|    0.013175|  3.4523e+00|  3.4523e+00|  3.4523e+00|
|         114|  1.6917e-01|   -2.795074|    0.711589|    0.013092|  3.7975e+00|  3.7975e+00|  3.7975e+00|
|         115|  1.6858e-01|   -2.782227|    0.712529|    0.013091|  4.1772e+00|  4.1772e+00|  4.1772e+00|
|         116|  1.6806e-01|   -2.755157|    0.711979|    0.013282|  4.5950e+00|  4.5950e+00|  4.5950e+00|
|         117|  1.6757e-01|   -2.707543|    0.710969|    0.013388|  5.0545e+00|  5.0545e+00|  5.0545e+00|
|         118|  1.6708e-01|   -2.640828|    0.710147|    0.013458|  5.5599e+00|  5.5599e+00|  5.5599e+00|
|         119|  1.6661e-01|   -2.655882|    0.709655|    0.013348|  6.1159e+00|  6.1159e+00|  6.1159e+00|
|         120|  1.6618e-01|   -2.636441|    0.712025|    0.013433|  6.7275e+00|  6.7275e+00|  6.7275e+00|
|         121|  1.6576e-01|   -2.575903|    0.712817|    0.013551|  6.7275e+00|  7.4002e+00|  7.4002e+00|
|         122|  1.6535e-01|   -2.558869|    0.713773|    0.013255|  7.4002e+00|  8.1403e+00|  8.1403e+00|
|         123|  1.6493e-01|   -2.577072|    0.713105|    0.013348|  8.1403e+00|  8.9543e+00|  8.9543e+00|
|         124|  1.6462e-01|   -2.596065|    0.712125|    0.013169|  8.9543e+00|  9.8497e+00|  9.8497e+00|
|         125|  1.6427e-01|   -2.577036|    0.711469|    0.013126|  8.9543e+00|  1.0835e+01|  1.0835e+01|
|         126|  1.6393e-01|   -2.588072|    0.711363|    0.013168|  8.9543e+00|  1.1918e+01|  1.1918e+01|
|         127|  1.6364e-01|   -2.548670|    0.711883|    0.013241|  9.8497e+00|  1.3110e+01|  1.3110e+01|
|         128|  1.6452e-01|   -2.507124|    0.713429|    0.013121|  9.8497e+00|  1.4421e+01|  1.4421e+01|
|         129|  1.6529e-01|   -2.499217|    0.714376|    0.013250|  1.0835e+01|  1.5863e+01|  1.5863e+01|
|         130|  1.6495e-01|   -2.478455|    0.711602|    0.013234|  1.0835e+01|  1.7449e+01|  1.7449e+01|
|         131|  1.6467e-01|   -2.472285|    0.711342|    0.013323|  1.1918e+01|  1.9194e+01|  1.9194e+01|
|         132|  1.6439e-01|   -2.472449|    0.711511|    0.013489|  1.1918e+01|  2.1114e+01|  2.1113e+01|
|         133|  1.6411e-01|   -2.466343|    0.712465|    0.013061|  1.3110e+01|  2.3225e+01|  2.3225e+01|
|         134|  1.6385e-01|   -2.458151|    0.713660|    0.012938|  1.3110e+01|  2.5548e+01|  2.5547e+01|
|         135|  1.6360e-01|   -2.459978|    0.713918|    0.012844|  1.4421e+01|  2.8102e+01|  2.8101e+01|
|         136|  1.6335e-01|   -2.451843|    0.712072|    0.012984|  1.5863e+01|  3.0913e+01|  3.0911e+01|
|         137|  1.6311e-01|   -2.474310|    0.711400|    0.012704|  1.5863e+01|  3.4004e+01|  3.4002e+01|
|         138|  1.6287e-01|   -2.481802|    0.711800|    0.012861|  1.7449e+01|  3.7404e+01|  3.7402e+01|
|         139|  1.6263e-01|   -2.478825|    0.712180|    0.012454|  1.9194e+01|  4.1145e+01|  4.1142e+01|
|         140|  1.6239e-01|   -2.465809|    0.711949|    0.012858|  2.1114e+01|  4.5259e+01|  4.5257e+01|
|         141|  1.6216e-01|   -2.444478|    0.711049|    0.012779|  2.1114e+01|  4.9785e+01|  4.9782e+01|
|         142|  1.6193e-01|   -2.466396|    0.712896|    0.012973|  2.3225e+01|  5.4764e+01|  5.4760e+01|
|         143|  1.6170e-01|   -2.483272|    0.713875|    0.012919|  2.3225e+01|  6.0240e+01|  6.0236e+01|
|         144|  1.6237e-01|   -2.438548|    0.712500|    0.012851|  2.5548e+01|  6.6264e+01|  6.6260e+01|
|         145|  1.6365e-01|   -2.430070|    0.711147|    0.013121|  2.8102e+01|  7.2890e+01|  7.2886e+01|
|         146|  1.6353e-01|   -2.438424|    0.711239|    0.013122|  3.0913e+01|  8.0180e+01|  8.0174e+01|
|         147|  1.6328e-01|   -2.443461|    0.712701|    0.013051|  3.4004e+01|  8.8197e+01|  8.8192e+01|
|         148|  1.6308e-01|   -2.424019|    0.714111|    0.013004|  3.7404e+01|  9.7017e+01|  9.7011e+01|
|         149|  1.6285e-01|   -2.402505|    0.713045|    0.013286|  4.1145e+01|  1.0672e+02|  1.0671e+02|
|         150|  1.6267e-01|   -2.413596|    0.713452|    0.013058|  4.5259e+01|  1.1739e+02|  1.1738e+02|
|         151|  1.6248e-01|   -2.402481|    0.712478|    0.012932|  4.9785e+01|  1.2913e+02|  1.2912e+02|
|         152|  1.6226e-01|   -2.388429|    0.712912|    0.013078|  5.4764e+01|  1.4204e+02|  1.4203e+02|
|         153|  1.6207e-01|   -2.408980|    0.708689|    0.012798|  6.0240e+01|  1.5625e+02|  1.5624e+02|
|         154|  1.6334e-01|   -2.433268|    0.707370|    0.013263|  6.6264e+01|  1.7187e+02|  1.7186e+02|
|         155|  1.6360e-01|   -2.458179|    0.709543|    0.013244|  7.2890e+01|  1.8906e+02|  1.8905e+02|
|         156|  1.6339e-01|   -2.382240|    0.711662|    0.013007|  8.0180e+01|  2.0797e+02|  2.0795e+02|
|         157|  1.6318e-01|   -2.360282|    0.709174|    0.012836|  8.8197e+01|  2.2876e+02|  2.2875e+02|
|         158|  1.6296e-01|   -2.361774|    0.709745|    0.013030|  9.7017e+01|  2.5164e+02|  2.5162e+02|
|         159|  1.6308e-01|   -2.297018|    0.715775|    0.012793|  1.0672e+02|  2.7680e+02|  2.7678e+02|
|         160|  1.6320e-01|   -2.211248|    0.711463|    0.013048|  1.1739e+02|  3.0448e+02|  3.0446e+02|
|         161|  1.6300e-01|   -2.190953|    0.706093|    0.013244|  1.2913e+02|  3.3493e+02|  3.3490e+02|
|         162|  1.6279e-01|   -2.192415|    0.710744|    0.013192|  1.4204e+02|  3.6842e+02|  3.6838e+02|
|         163|  1.6261e-01|   -2.165095|    0.709810|    0.013139|  1.5625e+02|  4.0527e+02|  4.0521e+02|
|         164|  1.6241e-01|   -2.041568|    0.711181|    0.013184|  1.7187e+02|  4.4579e+02|  4.4572e+02|
|         165|  1.6223e-01|   -2.150294|    0.703522|    0.012879|  1.8906e+02|  4.9037e+02|  4.9029e+02|
|         166|  1.6205e-01|   -2.145968|    0.709176|    0.012796|  1.0000e+00|  1.0000e+00|  1.0000e+00|
|         167|  1.6168e-01|   -2.206929|    0.710742|    0.012890|  1.1000e+00|  1.1000e+00|  1.1000e+00|
|         168|  1.6130e-01|   -2.344070|    0.711894|    0.012923|  1.2100e+00|  1.2100e+00|  1.2100e+00|
|         169|  1.6096e-01|   -2.371817|    0.712831|    0.012894|  1.3310e+00|  1.3310e+00|  1.3310e+00|
|         170|  1.6111e-01|   -2.474096|    0.713594|    0.012887|  1.4641e+00|  1.4641e+00|  1.4641e+00|
|         171|  1.6196e-01|   -2.588269|    0.714029|    0.012883|  1.6105e+00|  1.6105e+00|  1.6105e+00|
|         172|  1.6222e-01|   -2.677838|    0.713750|    0.012927|  1.7716e+00|  1.7716e+00|  1.7716e+00|
|         173|  1.6183e-01|   -2.738109|    0.712977|    0.012940|  1.9487e+00|  1.9487e+00|  1.9487e+00|
|         174|  1.6147e-01|   -2.729246|    0.711754|    0.012941|  2.1436e+00|  2.1436e+00|  2.1436e+00|
|         175|  1.6129e-01|   -2.586416|    0.709375|    0.013013|  2.3579e+00|  2.3579e+00|  2.3579e+00|
|         176|  1.6119e-01|   -2.537436|    0.707391|    0.013040|  2.5937e+00|  2.5937e+00|  2.5937e+00|
|         177|  1.6119e-01|   -2.548805|    0.706309|    0.013105|  2.8531e+00|  2.8531e+00|  2.8531e+00|
|         178|  1.6115e-01|   -2.622004|    0.705766|    0.013177|  3.1384e+00|  3.1384e+00|  3.1384e+00|
|         179|  1.6086e-01|   -2.525801|    0.705428|    0.013156|  3.4523e+00|  3.4523e+00|  3.4523e+00|
|         180|  1.6065e-01|   -2.417299|    0.706244|    0.013122|  3.7975e+00|  3.7975e+00|  3.7975e+00|
|         181|  1.6056e-01|   -2.486029|    0.707336|    0.013150|  4.1772e+00|  4.1772e+00|  4.1772e+00|
|         182|  1.6046e-01|   -2.418303|    0.708623|    0.013134|  4.1772e+00|  4.5950e+00|  4.5950e+00|
|         183|  1.6142e-01|   -2.380058|    0.710729|    0.013122|  4.5950e+00|  5.0545e+00|  5.0545e+00|
|         184|  1.6312e-01|   -2.331710|    0.710730|    0.013224|  4.5950e+00|  5.5599e+00|  5.5599e+00|
|         185|  1.6335e-01|   -2.170032|    0.709086|    0.013217|  4.5950e+00|  6.1159e+00|  6.1158e+00|
|         186|  1.6318e-01|   -2.158444|    0.712451|    0.012972|  4.5950e+00|  6.7275e+00|  6.7274e+00|
|         187|  1.6303e-01|   -2.175766|    0.712883|    0.012980|  4.5950e+00|  7.4002e+00|  7.4001e+00|
|         188|  1.6296e-01|   -2.237785|    0.710212|    0.013216|  5.0545e+00|  8.1403e+00|  8.1400e+00|
|         189|  1.6295e-01|   -2.280777|    0.709278|    0.013363|  5.5599e+00|  8.9543e+00|  8.9540e+00|
|         190|  1.6295e-01|   -2.326484|    0.713049|    0.013036|  6.1159e+00|  9.8497e+00|  9.8494e+00|
|         191|  1.6296e-01|   -2.361043|    0.716363|    0.012941|  6.7275e+00|  1.0835e+01|  1.0834e+01|
|         192|  1.6313e-01|   -2.288976|    0.717391|    0.012928|  7.4002e+00|  1.1918e+01|  1.1918e+01|
|         193|  1.6502e-01|   -2.300241|    0.712989|    0.013067|  8.1403e+00|  1.3110e+01|  1.3109e+01|
|         194|  1.6571e-01|   -2.275280|    0.711029|    0.013154|  8.9543e+00|  1.4421e+01|  1.4420e+01|
|         195|  1.6554e-01|   -2.232930|    0.706193|    0.013043|  9.8497e+00|  1.5863e+01|  1.5862e+01|
|         196|  1.6551e-01|   -2.237645|    0.704397|    0.013068|  1.0835e+01|  1.7449e+01|  1.7448e+01|
|         197|  1.6557e-01|   -2.173584|    0.704683|    0.013183|  1.1918e+01|  1.9194e+01|  1.9193e+01|
|         198|  1.6547e-01|   -2.163927|    0.710569|    0.013152|  1.3110e+01|  2.1114e+01|  2.1112e+01|
|         199|  1.6549e-01|   -2.227432|    0.712317|    0.013107|  1.3110e+01|  2.3225e+01|  2.3223e+01|
|         200|  1.6557e-01|   -2.231600|    0.706427|    0.013080|  1.4421e+01|  2.5548e+01|  2.5546e+01|
|         201|  1.6595e-01|   -2.192705|    0.709412|    0.013093|  1.5863e+01|  2.8102e+01|  2.8100e+01|
|         202|  1.6756e-01|   -2.137169|    0.711713|    0.012993|  1.5863e+01|  3.0913e+01|  3.0910e+01|
|         203|  1.6780e-01|   -2.114190|    0.706846|    0.012918|  1.5863e+01|  3.4004e+01|  3.4001e+01|
|         204|  1.6782e-01|   -2.116634|    0.707074|    0.012961|  1.5863e+01|  3.7404e+01|  3.7401e+01|
|         205|  1.6783e-01|   -2.104636|    0.706051|    0.013171|  1.5863e+01|  4.1145e+01|  4.1140e+01|
|         206|  1.6780e-01|   -2.039826|    0.707862|    0.012970|  1.5863e+01|  4.5259e+01|  4.5253e+01|
|         207|  1.6788e-01|   -2.109294|    0.713114|    0.013029|  1.7449e+01|  4.9785e+01|  4.9778e+01|
|         208|  1.6788e-01|   -2.263822|    0.713744|    0.013029|  1.9194e+01|  5.4764e+01|  5.4756e+01|
|         209|  1.6780e-01|   -2.243910|    0.711815|    0.013255|  1.9194e+01|  6.0240e+01|  6.0231e+01|
|         210|  1.6775e-01|   -2.239034|    0.707863|    0.013425|  1.9194e+01|  6.6264e+01|  6.6254e+01|
|         211|  1.6835e-01|   -2.267459|    0.711050|    0.013207|  2.1114e+01|  7.2890e+01|  7.2880e+01|
|         212|  1.6951e-01|   -2.235002|    0.714029|    0.012942|  2.3225e+01|  8.0180e+01|  8.0168e+01|
|         213|  1.6938e-01|   -2.171532|    0.713817|    0.012964|  2.5548e+01|  8.8197e+01|  8.8184e+01|
|         214|  1.6936e-01|   -2.166037|    0.710988|    0.013235|  2.8102e+01|  9.7017e+01|  9.7003e+01|
|         215|  1.6928e-01|   -2.198162|    0.712428|    0.013430|  3.0913e+01|  1.0672e+02|  1.0670e+02|
|         216|  1.6931e-01|   -2.205924|    0.711556|    0.013414|  3.4004e+01|  1.1739e+02|  1.1737e+02|
|         217|  1.6930e-01|   -2.240891|    0.709610|    0.012925|  3.7404e+01|  1.2913e+02|  1.2911e+02|
|         218|  1.6926e-01|   -2.183190|    0.703586|    0.012989|  4.1145e+01|  1.4204e+02|  1.4202e+02|
|         219|  1.7022e-01|   -2.122797|    0.707852|    0.013081|  4.1145e+01|  1.5625e+02|  1.5622e+02|
|         220|  1.7067e-01|   -2.157386|    0.708311|    0.012944|  4.5259e+01|  1.7187e+02|  1.7184e+02|
|         221|  1.7063e-01|   -2.191222|    0.710321|    0.012822|  4.9785e+01|  1.8906e+02|  1.8902e+02|
|         222|  1.7061e-01|   -2.157724|    0.709174|    0.012730|  5.4764e+01|  2.0797e+02|  2.0792e+02|
|         223|  1.7054e-01|   -2.124537|    0.713040|    0.012887|  6.0240e+01|  2.2876e+02|  2.2871e+02|
|         224|  1.7049e-01|   -2.139505|    0.706290|    0.013378|  6.6264e+01|  2.5164e+02|  2.5158e+02|
|         225|  1.7111e-01|   -2.051943|    0.708632|    0.013194|  7.2890e+01|  2.7680e+02|  2.7673e+02|
|         226|  1.7217e-01|   -2.051796|    0.712626|    0.013174|  8.0180e+01|  3.0448e+02|  3.0440e+02|
|         227|  1.7221e-01|   -2.038763|    0.715184|    0.013144|  8.0180e+01|  3.3493e+02|  3.3483e+02|
|         228|  1.7227e-01|   -2.026219|    0.722625|    0.013301|  8.8197e+01|  3.6842e+02|  3.6831e+02|
|         229|  1.7233e-01|   -1.977604|    0.722332|    0.013052|  9.7017e+01|  4.0527e+02|  4.0513e+02|
|         230|  1.7239e-01|   -2.031101|    0.711265|    0.013432|  9.7017e+01|  4.0527e+02|  4.0513e+02|
|         231|  1.7245e-01|   -1.929105|    0.719949|    0.013399|  9.7017e+01|  4.4579e+02|  4.4562e+02|
|         232|  1.7245e-01|   -1.911864|    0.733437|    0.013270|  9.7017e+01|  4.9037e+02|  4.9016e+02|
|         233|  1.7245e-01|   -1.876880|    0.737868|    0.012692|  7.8124e+01|  5.3941e+02|  5.3915e+02|
|         234|  1.7248e-01|   -1.838663|    0.724724|    0.013033|  7.8124e+01|  5.9335e+02|  5.9303e+02|
|         235|  1.7394e-01|   -1.710449|    0.717780|    0.012797|  7.8124e+01|  5.9335e+02|  5.9303e+02|
|         236|  1.7406e-01|   -1.737202|    0.700391|    0.012744|  3.9062e+01|  6.5268e+02|  6.5229e+02|
|         237|  1.7410e-01|   -1.786246|    0.701514|    0.014008|  1.0000e+00|  1.0000e+00|  1.0000e+00|
|         238|  1.7392e-01|   -1.763664|    0.703060|    0.013978|  1.0000e+00|  1.1000e+00|  1.1000e+00|
|         239|  1.7372e-01|   -1.948159|    0.707517|    0.013895|  1.0000e+00|  1.2100e+00|  1.2100e+00|
|         240|  1.7357e-01|   -2.116341|    0.709759|    0.013819|  1.1000e+00|  1.3310e+00|  1.3310e+00|
|         241|  1.7335e-01|   -2.096153|    0.714871|    0.013657|  1.2100e+00|  1.4641e+00|  1.4641e+00|
|         242|  1.7315e-01|   -2.191962|    0.719497|    0.013540|  1.3310e+00|  1.6105e+00|  1.6105e+00|
|         243|  1.7299e-01|   -2.048602|    0.720820|    0.013414|  1.4641e+00|  1.7716e+00|  1.7715e+00|
|         244|  1.7280e-01|   -2.218209|    0.726711|    0.013241|  1.6105e+00|  1.9487e+00|  1.9487e+00|
|         245|  1.7253e-01|   -2.001921|    0.730326|    0.013074|  1.6105e+00|  2.1436e+00|  2.1435e+00|
|         246|  1.7275e-01|   -2.078589|    0.728999|    0.013039|  1.7716e+00|  2.3579e+00|  2.3579e+00|
|         247|  1.7363e-01|   -2.084603|    0.735818|    0.012924|  1.9487e+00|  2.5937e+00|  2.5937e+00|
|         248|  1.7343e-01|   -2.095819|    0.736374|    0.012960|  2.1436e+00|  2.8531e+00|  2.8530e+00|
|         249|  1.7315e-01|   -2.174640|    0.741951|    0.012942|  2.1436e+00|  3.1384e+00|  3.1383e+00|
|         250|  1.7288e-01|   -2.132171|    0.739059|    0.012920|  2.3579e+00|  3.4523e+00|  3.4521e+00|
|         251|  1.7264e-01|   -2.134399|    0.733644|    0.012844|  2.3579e+00|  3.7975e+00|  3.7973e+00|
|         252|  1.7239e-01|   -2.081399|    0.725991|    0.012922|  2.3579e+00|  4.1772e+00|  4.1770e+00|
|         253|  1.7217e-01|   -2.021888|    0.717611|    0.012921|  2.3579e+00|  4.5950e+00|  4.5947e+00|
|         254|  1.7193e-01|   -2.025556|    0.714937|    0.012917|  2.3579e+00|  5.0545e+00|  5.0541e+00|
|         255|  1.7183e-01|   -2.010839|    0.717522|    0.012774|  2.3579e+00|  5.5599e+00|  5.5594e+00|
|         256|  1.7236e-01|   -1.999466|    0.714823|    0.012765|  2.3579e+00|  6.1159e+00|  6.1153e+00|
|         257|  1.7278e-01|   -1.916820|    0.711118|    0.012875|  2.3579e+00|  6.7275e+00|  6.7266e+00|
|         258|  1.7266e-01|   -1.869193|    0.706785|    0.012850|  2.3579e+00|  7.4002e+00|  7.3992e+00|
|         259|  1.7253e-01|   -1.805956|    0.703540|    0.012904|  2.3579e+00|  8.1403e+00|  8.1388e+00|
|         260|  1.7253e-01|   -1.819728|    0.701167|    0.013182|  2.3579e+00|  8.9543e+00|  8.9524e+00|
|         261|  1.7255e-01|   -1.792599|    0.708186|    0.013137|  2.5937e+00|  9.8497e+00|  9.8473e+00|
|         262|  1.7250e-01|   -1.844031|    0.714374|    0.013178|  2.8531e+00|  1.0835e+01|  1.0832e+01|
|         263|  1.7245e-01|   -1.700212|    0.719813|    0.013012|  2.8531e+00|  1.1918e+01|  1.1914e+01|
|         264|  1.7247e-01|   -1.766735|    0.721619|    0.013072|  2.8531e+00|  1.3110e+01|  1.3105e+01|
|         265|  1.7246e-01|   -1.862591|    0.733271|    0.013004|  3.1384e+00|  1.4421e+01|  1.4416e+01|
|         266|  1.7237e-01|   -1.883898|    0.744655|    0.012735|  3.1384e+00|  1.5863e+01|  1.5857e+01|
|         267|  1.7336e-01|   -1.937200|    0.747237|    0.012859|  3.4523e+00|  1.7449e+01|  1.7442e+01|
|         268|  1.7323e-01|   -1.934616|    0.740818|    0.013020|  3.4523e+00|  1.9194e+01|  1.9186e+01|
|         269|  1.7310e-01|   -1.882377|    0.733986|    0.012964|  3.4523e+00|  2.1114e+01|  2.1104e+01|
|         270|  1.7303e-01|   -1.880112|    0.729898|    0.013065|  3.4523e+00|  2.3225e+01|  2.3214e+01|
|         271|  1.7293e-01|   -1.928679|    0.731734|    0.012908|  3.4523e+00|  2.5548e+01|  2.5535e+01|
|         272|  1.7283e-01|   -1.990261|    0.733584|    0.012845|  3.7975e+00|  2.8102e+01|  2.8089e+01|
|         273|  1.7277e-01|   -2.031465|    0.728290|    0.012792|  4.1772e+00|  3.0913e+01|  3.0897e+01|
|         274|  1.7268e-01|   -1.972406|    0.719244|    0.013108|  4.5950e+00|  3.4004e+01|  3.3987e+01|
|         275|  1.7255e-01|   -1.881330|    0.723458|    0.013185|  5.0545e+00|  3.7404e+01|  3.7385e+01|
|         276|  1.7325e-01|   -1.883845|    0.721223|    0.013376|  5.0545e+00|  4.1145e+01|  4.1123e+01|
|         277|  1.7377e-01|   -1.895101|    0.718632|    0.013665|  5.5599e+00|  4.5259e+01|  4.5234e+01|
|         278|  1.7374e-01|   -1.906173|    0.710213|    0.013991|  5.5599e+00|  4.9785e+01|  4.9757e+01|
|         279|  1.7373e-01|   -1.901648|    0.703212|    0.014426|  5.5599e+00|  5.4764e+01|  5.4731e+01|
|         280|  1.7362e-01|   -1.997136|    0.700577|    0.014443|  5.5599e+00|  6.0240e+01|  6.0203e+01|
|         281|  1.7355e-01|   -1.928475|    0.704397|    0.014030|  5.5599e+00|  6.6264e+01|  6.6221e+01|
|         282|  1.7352e-01|   -2.047221|    0.705743|    0.014021|  5.5599e+00|  7.2890e+01|  7.2842e+01|
|         283|  1.7351e-01|   -2.046792|    0.699192|    0.013993|  5.5599e+00|  8.0180e+01|  8.0125e+01|
|         284|  1.7347e-01|   -2.029117|    0.697289|    0.013974|  5.5599e+00|  8.8197e+01|  8.8136e+01|
|         285|  1.7335e-01|   -1.903729|    0.702272|    0.013819|  5.5599e+00|  9.7017e+01|  9.6948e+01|
|         286|  1.7334e-01|   -1.886141|    0.700591|    0.013756|  5.5599e+00|  1.0672e+02|  1.0664e+02|
|         287|  1.7371e-01|   -1.919769|    0.694307|    0.013671|  2.7800e+00|  5.3359e+01|  5.3321e+01|
|         288|  1.7448e-01|   -1.848067|    0.681645|    0.014639|  1.3900e+00|  2.6680e+01|  2.6660e+01|
|         289|  1.7433e-01|   -1.743318|    0.684217|    0.014462|  1.0000e+00|  1.3340e+01|  1.3330e+01|
|         290|  1.7427e-01|   -1.742462|    0.683438|    0.014471|  1.0000e+00|  6.6699e+00|  6.6651e+00|
|         291|  1.7410e-01|   -1.788847|    0.690251|    0.014506|  1.0000e+00|  3.3350e+00|  3.3327e+00|
|         292|  1.7389e-01|   -1.761795|    0.693337|    0.014547|  1.0000e+00|  1.6675e+00|  1.6666e+00|
|         293|  1.7365e-01|   -1.773602|    0.695483|    0.014416|  1.0000e+00|  1.0000e+00|  1.0000e+00|
|         294|  1.7347e-01|   -1.820193|    0.697635|    0.014327|  1.0000e+00|  1.0000e+00|  1.0000e+00|
|         295|  1.7335e-01|   -1.881159|    0.698790|    0.014295|  1.0000e+00|  1.0000e+00|  1.0000e+00|
|         296|  1.7319e-01|   -1.951031|    0.698750|    0.014356|  1.0000e+00|  1.0000e+00|  1.0000e+00|
|         297|  1.7301e-01|   -1.954875|    0.698209|    0.014446|  1.1000e+00|  1.1000e+00|  1.1000e+00|
|         298|  1.7282e-01|   -1.950221|    0.697744|    0.014504|  1.1000e+00|  1.2100e+00|  1.2100e+00|
|         299|  1.7259e-01|   -1.973183|    0.696043|    0.014580|  1.2100e+00|  1.3310e+00|  1.3310e+00|
|         300|  1.7234e-01|   -1.979935|    0.693515|    0.014574|  1.3310e+00|  1.4641e+00|  1.4641e+00|
|         301|  1.7215e-01|   -1.955942|    0.694446|    0.014455|  1.3310e+00|  1.6105e+00|  1.6105e+00|
|         302|  1.7201e-01|   -1.995130|    0.695468|    0.014426|  1.3310e+00|  1.7716e+00|  1.7715e+00|
|         303|  1.7189e-01|   -1.946748|    0.694118|    0.014456|  1.3310e+00|  1.9487e+00|  1.9487e+00|
|         304|  1.7254e-01|   -1.860558|    0.696067|    0.014397|  1.0000e+00|  1.0000e+00|  1.0000e+00|
|         305|  1.7258e-01|   -1.859762|    0.701843|    0.014286|  1.0000e+00|  1.0000e+00|  1.0000e+00|
|         306|  1.7242e-01|   -1.849225|    0.700385|    0.014345|  1.0000e+00|  1.0000e+00|  1.0000e+00|
|         307|  1.7218e-01|   -1.966040|    0.699249|    0.014322|  1.0000e+00|  1.0000e+00|  1.0000e+00|
|         308|  1.7201e-01|   -1.874003|    0.698854|    0.014270|  1.0000e+00|  1.0000e+00|  1.0000e+00|
|         309|  1.7177e-01|   -1.928309|    0.700421|    0.014230|  1.0000e+00|  1.1000e+00|  1.1000e+00|
|         310|  1.7159e-01|   -1.921818|    0.704548|    0.014145|  1.0000e+00|  1.0000e+00|  1.0000e+00|
|         311|  1.7142e-01|   -1.853719|    0.708463|    0.014063|  1.0000e+00|  1.0000e+00|  1.0000e+00|
|         312|  1.7128e-01|   -1.836656|    0.706506|    0.014191|  1.0000e+00|  1.0000e+00|  1.0000e+00|
|         313|  1.7108e-01|   -1.794635|    0.706624|    0.014236|  1.0000e+00|  1.1000e+00|  1.1000e+00|
|         314|  1.7086e-01|   -1.861198|    0.703030|    0.014339|  1.0000e+00|  1.0000e+00|  1.0000e+00|
|         315|  1.7063e-01|   -1.989045|    0.698129|    0.014394|  1.1000e+00|  1.1000e+00|  1.1000e+00|
|         316|  1.7048e-01|   -1.965279|    0.698468|    0.014352|  1.1000e+00|  1.2100e+00|  1.2100e+00|
|         317|  1.7037e-01|   -1.942687|    0.704111|    0.014215|  1.1000e+00|  1.3310e+00|  1.3310e+00|
|         318|  1.7026e-01|   -1.864674|    0.711193|    0.014043|  1.0000e+00|  1.0000e+00|  1.0000e+00|
|         319|  1.7008e-01|   -1.886365|    0.715268|    0.014026|  1.0000e+00|  1.0000e+00|  1.0000e+00|
|         320|  1.7087e-01|   -1.843355|    0.713591|    0.014124|  1.0000e+00|  1.0000e+00|  1.0000e+00|
|         321|  1.7092e-01|   -2.006938|    0.710501|    0.014178|  1.0000e+00|  1.1000e+00|  1.1000e+00|
|         322|  1.7068e-01|   -2.120932|    0.707561|    0.014201|  1.1000e+00|  1.2100e+00|  1.2100e+00|
|         323|  1.7045e-01|   -2.048145|    0.708574|    0.014157|  1.2100e+00|  1.3310e+00|  1.3310e+00|
|         324|  1.7025e-01|   -1.982756|    0.713916|    0.014002|  1.3310e+00|  1.4641e+00|  1.4641e+00|
|         325|  1.7010e-01|   -1.898804|    0.721584|    0.013818|  1.0000e+00|  1.0000e+00|  1.0000e+00|
|         326|  1.6988e-01|   -2.024005|    0.719143|    0.013937|  1.0000e+00|  1.1000e+00|  1.1000e+00|
|         327|  1.6973e-01|   -1.910322|    0.714249|    0.014087|  1.0000e+00|  1.0000e+00|  1.0000e+00|
|         328|  1.6959e-01|   -2.039713|    0.708678|    0.014215|  1.1000e+00|  1.1000e+00|  1.1000e+00|
|         329|  1.6943e-01|   -2.061499|    0.704307|    0.014289|  1.2100e+00|  1.2100e+00|  1.2100e+00|
|         330|  1.6926e-01|   -2.090852|    0.702249|    0.014315|  1.3310e+00|  1.3310e+00|  1.3310e+00|
|         331|  1.6910e-01|   -2.107156|    0.700909|    0.014332|  1.4641e+00|  1.4641e+00|  1.4641e+00|
|         332|  1.6895e-01|   -1.978150|    0.696140|    0.014367|  1.4641e+00|  1.6105e+00|  1.6105e+00|
|         333|  1.6880e-01|   -1.979445|    0.696831|    0.014441|  1.6105e+00|  1.7716e+00|  1.7715e+00|
|         334|  1.6915e-01|   -1.878691|    0.699125|    0.014466|  1.6105e+00|  1.9487e+00|  1.9487e+00|
|         335|  1.6979e-01|   -1.912795|    0.698110|    0.014509|  1.7716e+00|  2.1436e+00|  2.1435e+00|
|         336|  1.6968e-01|   -1.894829|    0.700036|    0.014338|  1.7716e+00|  2.3579e+00|  2.3579e+00|
|         337|  1.6957e-01|   -1.696204|    0.712422|    0.013973|  1.0000e+00|  1.1790e+00|  1.1789e+00|
|         338|  1.6942e-01|   -1.644691|    0.732340|    0.013478|  1.0000e+00|  1.0000e+00|  1.0000e+00|
|         339|  1.6927e-01|   -1.706828|    0.750520|    0.013156|  1.0000e+00|  1.0000e+00|  1.0000e+00|
|         340|  1.6908e-01|   -1.789584|    0.759142|    0.013000|  1.0000e+00|  1.0000e+00|  1.0000e+00|
|         341|  1.6888e-01|   -1.898731|    0.753421|    0.013104|  1.0000e+00|  1.0000e+00|  1.0000e+00|
|         342|  1.6869e-01|   -1.919966|    0.746128|    0.013290|  1.0000e+00|  1.0000e+00|  1.0000e+00|
|         343|  1.6851e-01|   -1.956191|    0.740246|    0.013342|  1.0000e+00|  1.1000e+00|  1.1000e+00|
|         344|  1.6835e-01|   -1.976596|    0.734986|    0.013375|  1.1000e+00|  1.2100e+00|  1.2100e+00|
|         345|  1.6823e-01|   -2.020120|    0.732078|    0.013380|  1.2100e+00|  1.3310e+00|  1.3310e+00|
|         346|  1.6803e-01|   -1.866099|    0.726662|    0.013446|  1.2100e+00|  1.4641e+00|  1.4641e+00|
|         347|  1.6782e-01|   -1.905837|    0.714084|    0.013759|  1.3310e+00|  1.6105e+00|  1.6105e+00|
|         348|  1.6764e-01|   -1.861335|    0.707954|    0.013960|  1.3310e+00|  1.7716e+00|  1.7715e+00|
|         349|  1.6745e-01|   -1.855737|    0.708731|    0.014041|  1.3310e+00|  1.9487e+00|  1.9486e+00|
|         350|  1.6726e-01|   -1.828763|    0.708647|    0.013997|  1.3310e+00|  2.1436e+00|  2.1434e+00|
|         351|  1.6771e-01|   -1.786376|    0.708993|    0.013999|  1.3310e+00|  2.3579e+00|  2.3577e+00|
|         352|  1.6804e-01|   -1.767374|    0.694163|    0.014219|  1.3310e+00|  2.5937e+00|  2.5935e+00|
|         353|  1.6784e-01|   -1.705225|    0.672146|    0.014628|  1.3310e+00|  2.8531e+00|  2.8528e+00|
|         354|  1.6767e-01|   -1.643735|    0.656416|    0.014881|  1.4641e+00|  3.1384e+00|  3.1380e+00|
|         355|  1.6749e-01|   -1.644690|    0.645912|    0.014890|  1.4641e+00|  3.4523e+00|  3.4517e+00|
|         356|  1.6734e-01|   -1.670805|    0.638895|    0.014844|  1.4641e+00|  3.7975e+00|  3.7968e+00|
|         357|  1.6718e-01|   -1.708459|    0.643474|    0.014762|  1.4641e+00|  4.1772e+00|  4.1764e+00|
|         358|  1.6702e-01|   -1.753475|    0.655979|    0.014670|  1.4641e+00|  4.5950e+00|  4.5939e+00|
|         359|  1.6687e-01|   -1.851934|    0.668752|    0.014545|  1.4641e+00|  5.0545e+00|  5.0532e+00|
|         360|  1.6671e-01|   -1.694648|    0.688620|    0.013912|  1.4641e+00|  5.5599e+00|  5.5584e+00|
|         361|  1.6657e-01|   -1.714867|    0.705885|    0.013188|  1.4641e+00|  6.1159e+00|  6.1141e+00|
|         362|  1.6644e-01|   -1.722240|    0.731264|    0.012518|  1.4641e+00|  6.7275e+00|  6.7254e+00|
|         363|  1.6631e-01|   -1.712214|    0.743721|    0.012546|  1.4641e+00|  7.4002e+00|  7.3977e+00|
|         364|  1.6643e-01|   -1.773296|    0.748837|    0.012913|  1.4641e+00|  8.1403e+00|  8.1372e+00|
|         365|  1.6718e-01|   -1.881234|    0.744466|    0.013407|  1.4641e+00|  8.9543e+00|  8.9507e+00|
|         366|  1.6711e-01|   -1.842692|    0.751173|    0.013001|  1.4641e+00|  9.8497e+00|  9.8456e+00|
|         367|  1.6701e-01|   -1.720520|    0.758269|    0.013034|  1.2969e+00|  1.0835e+01|  1.0830e+01|
|         368|  1.6693e-01|   -1.745537|    0.771285|    0.012819|  1.0000e+00|  1.1918e+01|  1.1913e+01|
|         369|  1.6699e-01|   -1.724333|    0.778175|    0.012637|  1.0000e+00|  1.3110e+01|  1.3103e+01|
|         370|  1.6702e-01|   -1.771938|    0.774710|    0.012452|  1.0000e+00|  1.4421e+01|  1.4413e+01|
|         371|  1.6705e-01|   -1.681176|    0.776146|    0.012242|  1.0000e+00|  1.5863e+01|  1.5854e+01|
|         372|  1.6703e-01|   -1.619924|    0.774314|    0.012491|  1.0000e+00|  1.7449e+01|  1.7439e+01|
|         373|  1.6706e-01|   -1.613176|    0.776071|    0.012101|  1.0000e+00|  1.9194e+01|  1.9182e+01|
|         374|  1.6805e-01|   -1.594936|    0.773078|    0.011858|  1.0000e+00|  1.0000e+00|  1.0000e+00|
|         375|  1.6797e-01|   -1.696125|    0.776339|    0.011764|  1.0000e+00|  1.1000e+00|  1.1000e+00|
|         376|  1.6785e-01|   -1.805478|    0.779290|    0.011725|  1.0000e+00|  1.2100e+00|  1.2099e+00|
|         377|  1.6770e-01|   -1.812963|    0.781646|    0.011605|  1.0000e+00|  1.3310e+00|  1.3309e+00|
|         378|  1.6762e-01|   -1.860110|    0.785964|    0.011495|  1.0000e+00|  1.4641e+00|  1.4640e+00|
|         379|  1.6752e-01|   -1.847865|    0.787948|    0.011424|  1.0000e+00|  1.6105e+00|  1.6103e+00|
|         380|  1.6737e-01|   -1.778114|    0.776154|    0.011566|  1.0000e+00|  1.7716e+00|  1.7713e+00|
|         381|  1.6722e-01|   -1.826421|    0.766046|    0.011714|  1.0000e+00|  1.9487e+00|  1.9485e+00|
|         382|  1.6710e-01|   -1.818136|    0.763702|    0.011698|  1.0000e+00|  2.1436e+00|  2.1433e+00|
|         383|  1.6695e-01|   -1.777301|    0.763864|    0.011608|  1.0000e+00|  2.3579e+00|  2.3575e+00|
|         384|  1.6685e-01|   -1.733203|    0.764396|    0.011574|  1.0000e+00|  2.5937e+00|  2.5933e+00|
|         385|  1.6670e-01|   -1.785629|    0.761157|    0.011619|  1.0000e+00|  2.8531e+00|  2.8525e+00|
|         386|  1.6693e-01|   -1.852886|    0.758103|    0.011610|  1.0000e+00|  3.1384e+00|  3.1377e+00|
|         387|  1.6735e-01|   -1.885023|    0.760784|    0.011311|  1.0000e+00|  3.4523e+00|  3.4514e+00|
|         388|  1.6735e-01|   -1.604294|    0.760394|    0.011050|  1.0000e+00|  3.7975e+00|  3.7965e+00|
|         389|  1.6720e-01|   -1.626263|    0.763111|    0.010714|  1.0000e+00|  4.1772e+00|  4.1760e+00|
|         390|  1.6706e-01|   -1.738918|    0.769703|    0.010369|  1.0000e+00|  4.5950e+00|  4.5935e+00|
|         391|  1.6694e-01|   -1.769121|    0.779351|    0.009922|  1.0000e+00|  5.0545e+00|  5.0528e+00|
|         392|  1.6683e-01|   -1.667170|    0.787839|    0.009448|  1.0000e+00|  5.5599e+00|  5.5579e+00|
|         393|  1.6672e-01|   -1.822788|    0.797840|    0.009004|  1.0000e+00|  6.1159e+00|  6.1135e+00|
|         394|  1.6662e-01|   -1.847426|    0.807879|    0.008427|  1.0000e+00|  6.7275e+00|  6.7248e+00|
|         395|  1.6651e-01|   -1.678287|    0.816445|    0.007852|  1.0000e+00|  7.4002e+00|  7.3970e+00|
|         396|  1.6644e-01|   -1.775750|    0.840434|    0.006763|  1.0000e+00|  8.1403e+00|  8.1365e+00|
|         397|  1.6656e-01|   -1.667572|    0.861411|    0.005824|  1.0000e+00|  8.9543e+00|  8.9499e+00|
|         398|  1.6713e-01|   -1.663286|    0.857958|    0.005544|  1.0000e+00|  9.8497e+00|  9.8447e+00|
|         399|  1.6713e-01|   -1.669220|    0.868629|    0.005052|  1.0000e+00|  1.0835e+01|  1.0829e+01|
|         400|  1.6703e-01|   -1.658675|    0.883447|    0.004606|  1.0000e+00|  1.1918e+01|  1.1911e+01|
|         401|  1.6696e-01|   -1.575585|    0.906003|    0.003562|  1.0000e+00|  1.3110e+01|  1.3102e+01|
|         402|  1.6689e-01|   -1.725921|    0.935461|    0.002141|  1.0000e+00|  1.4421e+01|  1.4412e+01|
|         403|  1.6682e-01|   -1.560125|    0.966435|    0.000592|  1.0000e+00|  1.5863e+01|  1.5852e+01|
|         404|  1.6675e-01|   -1.614274|    1.009096|   -0.001331|  1.0000e+00|  1.7449e+01|  1.7437e+01|
|         405|  1.6669e-01|   -1.554315|    1.052432|   -0.003214|  1.0000e+00|  1.9194e+01|  1.9179e+01|
|         406|  1.6662e-01|   -1.520784|    1.114982|   -0.006237|  1.0000e+00|  2.1114e+01|  2.1096e+01|
|         407|  1.6679e-01|   -1.512430|    1.194910|   -0.009769|  1.0000e+00|  2.3225e+01|  2.3204e+01|
|         408|  1.6735e-01|   -1.487277|    1.241632|   -0.012517|  1.0000e+00|  2.5548e+01|  2.5522e+01|
|         409|  1.6727e-01|   -1.621549|    1.163673|   -0.011360|  1.0000e+00|  2.8102e+01|  2.8072e+01|
|         410|  1.6721e-01|   -1.310296|    1.078773|   -0.010071|  1.0000e+00|  1.0000e+00|  1.0000e+00|
|         411|  1.6705e-01|   -1.420278|    1.080732|   -0.010107|  1.0000e+00|  1.1000e+00|  1.0999e+00|
|         412|  1.6690e-01|   -1.328298|    1.086250|   -0.010346|  1.0000e+00|  1.2100e+00|  1.2099e+00|
|         413|  1.6674e-01|   -1.353088|    1.082424|   -0.010235|  1.0000e+00|  1.3310e+00|  1.3308e+00|
|         414|  1.6658e-01|   -1.395154|    1.074220|   -0.009977|  1.0000e+00|  1.4641e+00|  1.4639e+00|
|         415|  1.6643e-01|   -1.437789|    1.071938|   -0.010049|  1.0000e+00|  1.6105e+00|  1.6102e+00|
|         416|  1.6628e-01|   -1.240894|    1.071906|   -0.010240|  1.0000e+00|  1.7716e+00|  1.7712e+00|
|         417|  1.6614e-01|   -1.479335|    1.071534|   -0.010512|  1.0000e+00|  1.9487e+00|  1.9482e+00|
|         418|  1.6599e-01|   -1.497460|    1.074626|   -0.010982|  1.0000e+00|  2.1436e+00|  2.1429e+00|
|         419|  1.6585e-01|   -1.381672|    1.062349|   -0.010888|  1.0000e+00|  2.3579e+00|  2.3571e+00|
|         420|  1.6574e-01|   -1.482917|    1.061626|   -0.011223|  1.0000e+00|  2.5937e+00|  2.5928e+00|
|         421|  1.6569e-01|   -1.457114|    1.043891|   -0.010970|  1.0000e+00|  2.8531e+00|  2.8520e+00|
|         422|  1.6563e-01|   -1.615070|    1.034383|   -0.010935|  1.0000e+00|  3.1384e+00|  3.1370e+00|
|         423|  1.6556e-01|   -1.635775|    1.034481|   -0.011360|  1.0000e+00|  3.4523e+00|  3.4506e+00|
|         424|  1.6623e-01|   -1.575961|    1.011873|   -0.010813|  1.0000e+00|  3.7975e+00|  3.7955e+00|
|         425|  1.6630e-01|   -1.622372|    1.000720|   -0.010593|  1.0000e+00|  4.1772e+00|  4.1749e+00|
|         426|  1.6623e-01|   -1.624493|    0.972147|   -0.009643|  1.0000e+00|  4.5950e+00|  4.5923e+00|
|         427|  1.6608e-01|   -1.551741|    0.957356|   -0.009310|  1.0000e+00|  1.0000e+00|  1.0000e+00|
|         428|  1.6591e-01|   -1.625706|    0.952897|   -0.009203|  1.0000e+00|  1.1000e+00|  1.1000e+00|
|         429|  1.6578e-01|   -1.678198|    0.949739|   -0.009117|  1.0000e+00|  1.2100e+00|  1.2099e+00|
|         430|  1.6571e-01|   -1.630351|    0.947299|   -0.009042|  1.0000e+00|  1.3310e+00|  1.3309e+00|
|         431|  1.6564e-01|   -1.695414|    0.946684|   -0.009089|  1.0000e+00|  1.4641e+00|  1.4639e+00|
|         432|  1.6557e-01|   -1.640887|    0.950381|   -0.009261|  1.0000e+00|  1.6105e+00|  1.6103e+00|
|         433|  1.6552e-01|   -1.669834|    0.959573|   -0.009695|  1.0000e+00|  1.7716e+00|  1.7713e+00|
|         434|  1.6546e-01|   -1.659788|    0.980436|   -0.010833|  1.0000e+00|  1.9487e+00|  1.9483e+00|
|         435|  1.6541e-01|   -1.635957|    1.004144|   -0.012133|  1.0000e+00|  2.1436e+00|  2.1431e+00|
|         436|  1.6530e-01|   -1.649509|    1.027299|   -0.013383|  1.0000e+00|  2.3579e+00|  2.3574e+00|
|         437|  1.6517e-01|   -1.672385|    1.046278|   -0.014377|  1.0000e+00|  2.5937e+00|  2.5931e+00|
|         438|  1.6525e-01|   -1.617108|    1.060973|   -0.015030|  1.0000e+00|  2.8531e+00|  2.8523e+00|
|         439|  1.6565e-01|   -1.577814|    1.062984|   -0.015042|  1.0000e+00|  3.1384e+00|  3.1375e+00|
|         440|  1.6579e-01|   -1.726808|    1.066321|   -0.015188|  1.0000e+00|  3.4523e+00|  3.4512e+00|
|         441|  1.6575e-01|   -1.676671|    1.066195|   -0.015377|  1.0000e+00|  3.7975e+00|  3.7962e+00|
|         442|  1.6562e-01|   -1.681198|    1.073543|   -0.015845|  1.0000e+00|  4.1772e+00|  4.1757e+00|
|         443|  1.6552e-01|   -1.686842|    1.084828|   -0.016607|  1.0000e+00|  4.5950e+00|  4.5932e+00|
|         444|  1.6542e-01|   -1.748632|    1.095059|   -0.017215|  1.0000e+00|  5.0545e+00|  5.0524e+00|
|         445|  1.6532e-01|   -1.738621|    1.082097|   -0.016966|  1.0000e+00|  5.5599e+00|  5.5575e+00|
|         446|  1.6522e-01|   -1.579800|    1.051700|   -0.015994|  1.0000e+00|  6.1159e+00|  6.1132e+00|
|         447|  1.6512e-01|   -1.413506|    1.024455|   -0.015322|  1.0000e+00|  6.7275e+00|  6.7243e+00|
|         448|  1.6504e-01|   -1.637967|    1.010703|   -0.015322|  1.0000e+00|  7.4002e+00|  7.3965e+00|
|         449|  1.6495e-01|   -1.686745|    1.012841|   -0.016318|  1.0000e+00|  8.1403e+00|  8.1359e+00|
|         450|  1.6488e-01|   -1.616239|    0.999291|   -0.017011|  1.0000e+00|  8.9543e+00|  8.9492e+00|
|         451|  1.6482e-01|   -1.658514|    0.999207|   -0.018472|  1.0000e+00|  9.8497e+00|  9.8438e+00|
|         452|  1.6505e-01|   -1.543809|    0.981204|   -0.019295|  1.0000e+00|  1.0835e+01|  1.0828e+01|
|         453|  1.6552e-01|   -1.645558|    0.982863|   -0.020539|  1.0000e+00|  1.1918e+01|  1.1910e+01|
|         454|  1.6544e-01|   -1.710239|    0.983440|   -0.021850|  1.0000e+00|  1.3110e+01|  1.3100e+01|
|         455|  1.6539e-01|   -1.710254|    0.990260|   -0.023436|  1.0000e+00|  1.4421e+01|  1.4410e+01|
|         456|  1.6533e-01|   -1.832003|    1.014660|   -0.026317|  1.0000e+00|  1.5863e+01|  1.5850e+01|
|         457|  1.6527e-01|   -1.909979|    1.023655|   -0.028519|  1.0000e+00|  1.7449e+01|  1.7435e+01|
|         458|  1.6526e-01|   -1.922071|    1.030835|   -0.030974|  1.0000e+00|  1.9194e+01|  1.9177e+01|
|         459|  1.6521e-01|   -1.806817|    1.034578|   -0.033102|  1.0000e+00|  2.1114e+01|  2.1094e+01|
|         460|  1.6516e-01|   -1.832842|    1.052332|   -0.036004|  1.0000e+00|  2.3225e+01|  2.3203e+01|
|         461|  1.6510e-01|   -1.826405|    1.062155|   -0.038781|  1.0000e+00|  2.5548e+01|  2.5523e+01|
|         462|  1.6506e-01|   -1.849000|    1.081782|   -0.041285|  1.0000e+00|  2.8102e+01|  2.8074e+01|
|         463|  1.6560e-01|   -1.882551|    1.109525|   -0.043313|  1.0000e+00|  3.0913e+01|  3.0879e+01|
|         464|  1.6589e-01|   -1.910848|    1.126087|   -0.042821|  1.0000e+00|  3.4004e+01|  3.3965e+01|
|         465|  1.6583e-01|   -1.959986|    1.120553|   -0.039110|  1.0000e+00|  3.7404e+01|  3.7358e+01|
|         466|  1.6577e-01|   -1.979333|    1.111520|   -0.032833|  1.0000e+00|  4.1145e+01|  4.1084e+01|
|         467|  1.6571e-01|   -1.912420|    1.123903|   -0.025695|  1.0000e+00|  4.5259e+01|  4.5175e+01|
|         468|  1.6566e-01|   -1.878312|    1.136740|   -0.016312|  1.0000e+00|  4.5259e+01|  4.5175e+01|
|         469|  1.6560e-01|   -1.831069|    1.143233|   -0.005800|  1.0000e+00|  4.9785e+01|  4.9683e+01|
|         470|  1.6554e-01|   -1.825876|    1.147958|    0.005462|  1.0000e+00|  4.9785e+01|  4.9683e+01|
|         471|  1.6549e-01|   -1.785892|    1.122020|    0.016755|  1.0000e+00|  5.4764e+01|  5.4649e+01|
|         472|  1.6543e-01|   -1.730930|    1.088384|    0.027751|  1.0000e+00|  2.7382e+01|  2.7324e+01|
|         473|  1.6549e-01|   -1.793993|    1.070111|    0.032825|  1.0000e+00|  3.0120e+01|  3.0056e+01|
|         474|  1.6598e-01|   -1.877355|    1.047471|    0.037631|  1.0000e+00|  3.3132e+01|  3.3060e+01|
|         475|  1.6612e-01|   -1.949753|    1.026992|    0.042497|  1.0000e+00|  3.6445e+01|  3.6364e+01|
|         476|  1.6606e-01|   -1.858484|    0.992669|    0.047596|  1.0000e+00|  4.0090e+01|  3.9999e+01|
|         477|  1.6599e-01|   -1.736332|    0.943256|    0.052737|  1.0000e+00|  4.4099e+01|  4.3998e+01|
|         478|  1.6594e-01|   -1.992388|    0.930096|    0.056981|  1.0000e+00|  4.4099e+01|  4.3998e+01|
|         479|  1.6589e-01|   -1.943343|    0.928323|    0.060585|  1.0000e+00|  4.8509e+01|  4.8394e+01|
|         480|  1.6583e-01|   -1.852398|    0.908250|    0.065126|  1.0000e+00|  5.3359e+01|  5.3226e+01|
|         481|  1.6578e-01|   -1.934805|    0.913049|    0.070314|  1.0000e+00|  2.6680e+01|  2.6613e+01|
|         482|  1.6572e-01|   -1.946377|    0.906712|    0.073219|  1.0000e+00|  2.9348e+01|  2.9274e+01|
|         483|  1.6565e-01|   -1.964264|    0.886070|    0.076114|  1.0000e+00|  3.2282e+01|  3.2200e+01|
|         484|  1.6610e-01|   -1.974178|    0.873613|    0.079702|  1.0000e+00|  3.5511e+01|  3.5419e+01|
|         485|  1.6624e-01|   -1.942202|    0.879792|    0.082551|  1.0000e+00|  3.9062e+01|  3.8960e+01|
|         486|  1.6617e-01|   -1.928500|    0.872894|    0.085691|  1.0000e+00|  4.2968e+01|  4.2854e+01|
|         487|  1.6612e-01|   -1.973433|    0.885122|    0.086860|  1.0000e+00|  4.7265e+01|  4.7138e+01|
|         488|  1.6606e-01|   -1.288032|    0.842469|    0.088230|  1.0000e+00|  5.1991e+01|  5.1850e+01|
|         489|  1.6601e-01|   -1.375792|    0.802828|    0.088105|  1.0000e+00|  5.7190e+01|  5.7034e+01|
|         490|  1.6597e-01|   -1.461427|    0.757291|    0.085829|  1.0000e+00|  6.2909e+01|  6.2736e+01|
|         491|  1.6592e-01|   -1.620333|    0.709955|    0.081230|  1.0000e+00|  3.1455e+01|  3.1368e+01|
|         492|  1.6586e-01|   -1.807602|    0.681630|    0.079189|  1.0000e+00|  3.4600e+01|  3.4504e+01|
|         493|  1.6610e-01|   -1.689879|    0.657089|    0.075955|  1.0000e+00|  3.8060e+01|  3.7954e+01|
|         494|  1.6655e-01|   -1.608042|    0.632066|    0.072267|  1.0000e+00|  4.1866e+01|  4.1748e+01|
|         495|  1.6648e-01|   -1.709019|    0.614983|    0.068280|  1.0000e+00|  4.6053e+01|  4.5922e+01|
|         496|  1.6642e-01|   -1.640800|    0.600323|    0.063981|  1.0000e+00|  5.0658e+01|  5.0512e+01|
|         497|  1.6637e-01|   -1.697661|    0.576774|    0.060022|  1.0000e+00|  5.5724e+01|  5.5561e+01|
|         498|  1.6630e-01|   -1.736506|    0.551333|    0.055727|  1.0000e+00|  6.1296e+01|  6.1115e+01|
|         499|  1.6625e-01|   -1.762336|    0.521056|    0.050909|  1.0000e+00|  6.7426e+01|  6.7224e+01|
|         500|  1.6620e-01|   -1.805400|    0.514275|    0.045428|  1.0000e+00|  7.4169e+01|  7.3944e+01|
+-----------------------------------------------------------------------+
|        File Writing Summary       |              Filename             |
+-----------------------------------------------------------------------+
|SU2 binary restart                 |restart_flow.dat                   |

Writing the forces breakdown file (forces_breakdown.dat).
|Paraview                           |flow.vtu                           |

Writing the forces breakdown file (forces_breakdown.dat).
|Paraview surface                   |surface_flow.vtu                   |

Writing the forces breakdown file (forces_breakdown.dat).
+-----------------------------------------------------------------------+
+-------------------------------------------------------------------------------------------------------+
|  Inner_Iter|   Time(sec)|    rms[Rho]|          CL|          CD|     Min CFL|     Max CFL|     Avg CFL|
+-------------------------------------------------------------------------------------------------------+
|         501|  1.6632e-01|   -1.832573|    0.502449|    0.039091|  1.0000e+00|  8.1585e+01|  8.1336e+01|
|         502|  1.6626e-01|   -1.842764|    0.489405|    0.033658|  1.0000e+00|  8.9744e+01|  8.9468e+01|
|         503|  1.6620e-01|   -1.855389|    0.494761|    0.026686|  1.0000e+00|  4.4872e+01|  4.4734e+01|
|         504|  1.6615e-01|   -1.844081|    0.506307|    0.023168|  1.0000e+00|  4.9359e+01|  4.9207e+01|
|         505|  1.6609e-01|   -1.877409|    0.518434|    0.018890|  1.0000e+00|  5.4295e+01|  5.4128e+01|
|         506|  1.6616e-01|   -1.882371|    0.519350|    0.014386|  1.0000e+00|  5.9725e+01|  5.9540e+01|
|         507|  1.6661e-01|   -1.864851|    0.512998|    0.009849|  1.0000e+00|  6.5697e+01|  6.5494e+01|
|         508|  1.6657e-01|   -1.896090|    0.508530|    0.004287|  1.0000e+00|  3.2849e+01|  3.2747e+01|
|         509|  1.6652e-01|   -1.869044|    0.516502|    0.002058|  1.0000e+00|  3.6133e+01|  3.6022e+01|
|         510|  1.6647e-01|   -1.895646|    0.515075|   -0.000497|  1.0000e+00|  3.9747e+01|  3.9624e+01|
|         511|  1.6642e-01|   -1.889545|    0.510609|   -0.003193|  1.0000e+00|  4.3721e+01|  4.3586e+01|
|         512|  1.6637e-01|   -1.865144|    0.508883|   -0.006406|  1.0000e+00|  4.8094e+01|  4.7944e+01|
|         513|  1.6632e-01|   -1.858442|    0.512821|   -0.009833|  1.0000e+00|  5.2903e+01|  5.2738e+01|
|         514|  1.6627e-01|   -1.886033|    0.524553|   -0.013265|  1.0000e+00|  5.8193e+01|  5.8011e+01|
|         515|  1.6622e-01|   -1.869723|    0.538298|   -0.016403|  1.0000e+00|  6.4013e+01|  6.3812e+01|
|         516|  1.6617e-01|   -1.876207|    0.541877|   -0.019329|  1.0000e+00|  3.2006e+01|  3.1906e+01|
|         517|  1.6612e-01|   -1.867860|    0.541814|   -0.020755|  1.0000e+00|  3.5207e+01|  3.5096e+01|
|         518|  1.6630e-01|   -1.882055|    0.532897|   -0.021857|  1.0000e+00|  3.8728e+01|  3.8606e+01|
|         519|  1.6662e-01|   -1.918699|    0.522840|   -0.022593|  1.0000e+00|  4.2600e+01|  4.2466e+01|
|         520|  1.6655e-01|   -1.889730|    0.520223|   -0.023493|  1.0000e+00|  4.6860e+01|  4.6712e+01|
|         521|  1.6650e-01|   -1.911830|    0.523387|   -0.024577|  1.0000e+00|  5.1546e+01|  5.1383e+01|
|         522|  1.6645e-01|   -1.928413|    0.532966|   -0.025286|  1.0000e+00|  5.6701e+01|  5.6521e+01|
|         523|  1.6640e-01|   -1.964262|    0.532466|   -0.025873|  1.0000e+00|  6.2371e+01|  6.2173e+01|
|         524|  1.6635e-01|   -1.998200|    0.525197|   -0.025886|  1.0000e+00|  6.2371e+01|  6.2173e+01|
|         525|  1.6630e-01|   -1.960254|    0.523519|   -0.024949|  1.0000e+00|  6.8608e+01|  6.8389e+01|
|         526|  1.6626e-01|   -1.933826|    0.528442|   -0.023702|  1.0000e+00|  6.8608e+01|  6.8389e+01|
|         527|  1.6621e-01|   -1.798634|    0.538302|   -0.022161|  1.0000e+00|  7.5469e+01|  7.5228e+01|
|         528|  1.6616e-01|   -1.781195|    0.541655|   -0.019878|  1.0000e+00|  3.7735e+01|  3.7614e+01|
|         529|  1.6634e-01|   -1.815067|    0.543079|   -0.018600|  1.0718e+00|  4.1508e+01|  4.1375e+01|
|         530|  1.6662e-01|   -1.745564|    0.542057|   -0.017366|  1.1790e+00|  4.5659e+01|  4.5512e+01|
|         531|  1.6657e-01|   -1.788899|    0.555774|   -0.016003|  1.2100e+00|  5.0225e+01|  5.0062e+01|
|         532|  1.6651e-01|   -1.839380|    0.563873|   -0.014132|  1.2100e+00|  5.5247e+01|  5.5068e+01|
|         533|  1.6647e-01|   -1.849903|    0.575423|   -0.011560|  1.2100e+00|  6.0772e+01|  6.0574e+01|
|         534|  1.6644e-01|   -1.896383|    0.569500|   -0.008343|  1.0000e+00|  3.0386e+01|  3.0287e+01|
|         535|  1.6640e-01|   -1.838569|    0.547541|   -0.006537|  1.0000e+00|  1.5193e+01|  1.5144e+01|
|         536|  1.6634e-01|   -1.867918|    0.533337|   -0.004939|  1.0000e+00|  7.5965e+00|  7.5725e+00|
|         537|  1.6627e-01|   -1.887795|    0.524178|   -0.004456|  1.0000e+00|  3.7982e+00|  3.7870e+00|
|         538|  1.6618e-01|   -1.927242|    0.522405|   -0.004294|  1.0000e+00|  1.8991e+00|  1.8945e+00|
|         539|  1.6607e-01|   -2.014610|    0.522223|   -0.004285|  1.0000e+00|  2.0890e+00|  2.0839e+00|
|         540|  1.6596e-01|   -2.055778|    0.523437|   -0.004193|  1.0000e+00|  2.2979e+00|  2.2923e+00|
|         541|  1.6585e-01|   -2.081209|    0.524521|   -0.003981|  1.1000e+00|  2.5277e+00|  2.5215e+00|
|         542|  1.6575e-01|   -2.009658|    0.522420|   -0.003793|  1.2100e+00|  2.7805e+00|  2.7737e+00|
|         543|  1.6566e-01|   -1.959609|    0.520728|   -0.003850|  1.3310e+00|  3.0586e+00|  3.0510e+00|
|         544|  1.6556e-01|   -1.931654|    0.516521|   -0.003492|  1.0000e+00|  1.5293e+00|  1.5260e+00|
|         545|  1.6558e-01|   -1.951795|    0.514650|   -0.003391|  1.0000e+00|  1.0000e+00|  1.0000e+00|
|         546|  1.6584e-01|   -1.960807|    0.513880|   -0.003444|  1.0000e+00|  1.1000e+00|  1.1000e+00|
|         547|  1.6589e-01|   -1.994081|    0.515300|   -0.003500|  1.0000e+00|  1.2100e+00|  1.2100e+00|
|         548|  1.6576e-01|   -1.996982|    0.516940|   -0.003356|  1.0000e+00|  1.0000e+00|  1.0000e+00|
|         549|  1.6563e-01|   -1.973349|    0.519594|   -0.003174|  1.0000e+00|  1.0000e+00|  1.0000e+00|
|         550|  1.6551e-01|   -1.920212|    0.523856|   -0.003225|  1.0000e+00|  1.1000e+00|  1.1000e+00|
|         551|  1.6539e-01|   -1.864038|    0.528669|   -0.003424|  1.0000e+00|  1.0000e+00|  1.0000e+00|
|         552|  1.6527e-01|   -1.953183|    0.532824|   -0.003533|  1.0000e+00|  1.1000e+00|  1.1000e+00|
|         553|  1.6516e-01|   -1.892015|    0.536738|   -0.003934|  1.0000e+00|  1.0000e+00|  1.0000e+00|
|         554|  1.6504e-01|   -1.852049|    0.539753|   -0.003848|  1.0000e+00|  1.0000e+00|  1.0000e+00|
|         555|  1.6493e-01|   -1.811500|    0.543201|   -0.003880|  1.0000e+00|  1.0000e+00|  1.0000e+00|
|         556|  1.6481e-01|   -1.882485|    0.547681|   -0.003769|  1.0000e+00|  1.0000e+00|  1.0000e+00|
|         557|  1.6470e-01|   -1.805040|    0.550755|   -0.003645|  1.0000e+00|  1.0000e+00|  1.0000e+00|
|         558|  1.6458e-01|   -1.933947|    0.553742|   -0.003587|  1.0000e+00|  1.0000e+00|  1.0000e+00|
|         559|  1.6447e-01|   -1.928124|    0.554186|   -0.003558|  1.0000e+00|  1.0000e+00|  1.0000e+00|
|         560|  1.6435e-01|   -1.899304|    0.556150|   -0.003792|  1.0000e+00|  1.0000e+00|  1.0000e+00|
|         561|  1.6438e-01|   -1.843944|    0.553996|   -0.003712|  1.0000e+00|  1.0000e+00|  1.0000e+00|
|         562|  1.6466e-01|   -1.780533|    0.554540|   -0.003766|  1.0000e+00|  1.0000e+00|  1.0000e+00|
|         563|  1.6465e-01|   -1.800930|    0.556469|   -0.003669|  1.0000e+00|  1.0000e+00|  1.0000e+00|
|         564|  1.6454e-01|   -1.743203|    0.555405|   -0.003222|  1.0000e+00|  1.0000e+00|  1.0000e+00|
|         565|  1.6442e-01|   -1.811815|    0.557175|   -0.003107|  1.0000e+00|  1.0000e+00|  1.0000e+00|
|         566|  1.6431e-01|   -1.749093|    0.558057|   -0.002827|  1.0000e+00|  1.0000e+00|  1.0000e+00|
|         567|  1.6419e-01|   -1.786306|    0.558572|   -0.002744|  1.0000e+00|  1.0000e+00|  1.0000e+00|
|         568|  1.6409e-01|   -1.758428|    0.558600|   -0.002779|  1.0000e+00|  1.0000e+00|  1.0000e+00|
|         569|  1.6398e-01|   -1.670882|    0.556704|   -0.002992|  1.0000e+00|  1.0000e+00|  1.0000e+00|
|         570|  1.6387e-01|   -1.688999|    0.554562|   -0.002782|  1.0000e+00|  1.0000e+00|  1.0000e+00|
|         571|  1.6376e-01|   -1.724955|    0.555073|   -0.002537|  1.0000e+00|  1.0000e+00|  1.0000e+00|
|         572|  1.6365e-01|   -1.661633|    0.557031|   -0.002246|  1.0000e+00|  1.0000e+00|  1.0000e+00|
|         573|  1.6354e-01|   -1.666342|    0.557014|   -0.002085|  1.0000e+00|  1.0000e+00|  1.0000e+00|
|         574|  1.6343e-01|   -1.661225|    0.555159|   -0.002069|  1.0000e+00|  1.0000e+00|  1.0000e+00|
|         575|  1.6332e-01|   -1.703672|    0.555115|   -0.002053|  1.0000e+00|  1.0000e+00|  1.0000e+00|
|         576|  1.6321e-01|   -1.697885|    0.555285|   -0.002062|  1.0000e+00|  1.0000e+00|  1.0000e+00|
|         577|  1.6310e-01|   -1.723562|    0.556777|   -0.002002|  1.0000e+00|  1.0000e+00|  1.0000e+00|
|         578|  1.6299e-01|   -1.744540|    0.560555|   -0.001844|  1.0000e+00|  1.0000e+00|  1.0000e+00|
|         579|  1.6306e-01|   -1.808425|    0.563113|   -0.001730|  1.0000e+00|  1.0000e+00|  1.0000e+00|
|         580|  1.6330e-01|   -1.778186|    0.564813|   -0.001647|  1.0000e+00|  1.0000e+00|  1.0000e+00|
|         581|  1.6349e-01|   -1.803333|    0.567268|   -0.001670|  1.0000e+00|  1.0000e+00|  1.0000e+00|
|         582|  1.6336e-01|   -1.729075|    0.571236|   -0.001664|  1.0000e+00|  1.0000e+00|  1.0000e+00|
|         583|  1.6324e-01|   -1.730556|    0.573414|   -0.001702|  1.0000e+00|  1.0000e+00|  1.0000e+00|
|         584|  1.6313e-01|   -1.754731|    0.577103|   -0.001669|  1.0000e+00|  1.0000e+00|  1.0000e+00|
|         585|  1.6304e-01|   -1.804292|    0.578754|   -0.001697|  1.0000e+00|  1.0000e+00|  1.0000e+00|
|         586|  1.6293e-01|   -1.846954|    0.579307|   -0.001687|  1.0000e+00|  1.0000e+00|  1.0000e+00|
|         587|  1.6283e-01|   -1.806541|    0.580530|   -0.001676|  1.0000e+00|  1.0000e+00|  1.0000e+00|
|         588|  1.6273e-01|   -1.798626|    0.582015|   -0.001682|  1.0000e+00|  1.1000e+00|  1.1000e+00|
|         589|  1.6262e-01|   -1.647619|    0.583164|   -0.001670|  1.0000e+00|  1.0000e+00|  1.0000e+00|
|         590|  1.6251e-01|   -1.716567|    0.585776|   -0.001683|  1.0000e+00|  1.0000e+00|  1.0000e+00|
|         591|  1.6241e-01|   -1.694529|    0.586636|   -0.001710|  1.0000e+00|  1.0000e+00|  1.0000e+00|
|         592|  1.6231e-01|   -1.604181|    0.587849|   -0.001682|  1.0000e+00|  1.0000e+00|  1.0000e+00|
|         593|  1.6221e-01|   -1.609942|    0.586841|   -0.001777|  1.0000e+00|  1.0000e+00|  1.0000e+00|
|         594|  1.6236e-01|   -1.560275|    0.586581|   -0.001739|  1.0000e+00|  1.0000e+00|  1.0000e+00|
|         595|  1.6267e-01|   -1.705502|    0.585475|   -0.001761|  1.0000e+00|  1.0000e+00|  1.0000e+00|
|         596|  1.6267e-01|   -1.628864|    0.581641|   -0.001703|  1.0000e+00|  1.0000e+00|  1.0000e+00|
|         597|  1.6257e-01|   -1.677090|    0.581989|   -0.001574|  1.0000e+00|  1.0000e+00|  1.0000e+00|
|         598|  1.6246e-01|   -1.520642|    0.586153|   -0.001527|  1.0000e+00|  1.0000e+00|  1.0000e+00|
|         599|  1.6236e-01|   -1.536933|    0.589880|   -0.001482|  1.0000e+00|  1.0000e+00|  1.0000e+00|
|         600|  1.6227e-01|   -1.570156|    0.592629|   -0.001552|  1.0000e+00|  1.0000e+00|  1.0000e+00|
|         601|  1.6217e-01|   -1.594451|    0.596385|   -0.001631|  1.0000e+00|  1.0000e+00|  1.0000e+00|
|         602|  1.6207e-01|   -1.532687|    0.596869|   -0.001755|  1.0000e+00|  1.0000e+00|  1.0000e+00|
|         603|  1.6197e-01|   -1.577043|    0.596790|   -0.001703|  1.0000e+00|  1.0000e+00|  1.0000e+00|
|         604|  1.6187e-01|   -1.572639|    0.596596|   -0.001506|  1.0000e+00|  1.0000e+00|  1.0000e+00|
|         605|  1.6176e-01|   -1.633025|    0.593649|   -0.001299|  1.0000e+00|  1.0000e+00|  1.0000e+00|
|         606|  1.6167e-01|   -1.627338|    0.591106|   -0.000960|  1.0000e+00|  1.0000e+00|  1.0000e+00|
|         607|  1.6157e-01|   -1.648453|    0.586031|   -0.000648|  1.0000e+00|  1.0000e+00|  1.0000e+00|
|         608|  1.6147e-01|   -1.666520|    0.581415|   -0.000355|  1.0000e+00|  1.0000e+00|  1.0000e+00|
|         609|  1.6144e-01|   -1.508897|    0.581127|   -0.000370|  1.0000e+00|  1.0000e+00|  1.0000e+00|
|         610|  1.6175e-01|   -1.641133|    0.581451|   -0.000303|  1.0000e+00|  1.0000e+00|  1.0000e+00|
|         611|  1.6194e-01|   -1.725235|    0.580694|   -0.000187|  1.0000e+00|  1.0000e+00|  1.0000e+00|
|         612|  1.6184e-01|   -1.725448|    0.580123|   -0.000021|  1.0000e+00|  1.0000e+00|  1.0000e+00|
|         613|  1.6173e-01|   -1.790029|    0.580341|    0.000202|  1.0000e+00|  1.0000e+00|  1.0000e+00|
|         614|  1.6163e-01|   -1.737694|    0.581730|    0.000300|  1.0000e+00|  1.0000e+00|  1.0000e+00|
|         615|  1.6154e-01|   -1.641747|    0.582894|    0.000345|  1.0000e+00|  1.0000e+00|  1.0000e+00|
|         616|  1.6144e-01|   -1.724822|    0.584466|    0.000381|  1.0000e+00|  1.0000e+00|  1.0000e+00|
|         617|  1.6135e-01|   -1.648339|    0.584790|    0.000376|  1.0000e+00|  1.0000e+00|  1.0000e+00|
|         618|  1.6127e-01|   -1.653903|    0.586324|    0.000429|  1.0000e+00|  1.0000e+00|  1.0000e+00|
|         619|  1.6118e-01|   -1.653757|    0.587768|    0.000431|  1.0000e+00|  1.0000e+00|  1.0000e+00|
|         620|  1.6108e-01|   -1.769398|    0.588776|    0.000635|  1.0000e+00|  1.0000e+00|  1.0000e+00|
|         621|  1.6099e-01|   -1.618130|    0.588950|    0.000741|  1.0000e+00|  1.0000e+00|  1.0000e+00|
[...]
|         871|  1.6593e-01|   -1.652220|    0.483324|    0.016130|  1.0000e+00|  1.0000e+00|  1.0000e+00|
|         872|  1.6585e-01|   -1.724536|    0.475508|    0.016136|  1.0000e+00|  1.1000e+00|  1.1000e+00|
|         873|  1.6577e-01|   -1.671947|    0.468724|    0.016001|  1.0000e+00|  1.0000e+00|  1.0000e+00|
|         874|  1.6569e-01|   -1.713689|    0.464878|    0.015794|  1.0000e+00|  1.0000e+00|  1.0000e+00|
|         875|  1.6561e-01|   -1.683696|    0.460311|    0.015554|  1.0000e+00|  1.0000e+00|  1.0000e+00|
|         876|  1.6553e-01|   -1.727001|    0.459013|    0.015381|  1.0000e+00|  1.0000e+00|  1.0000e+00|
|         877|  1.6545e-01|   -1.647596|    0.463148|    0.015219|  1.0000e+00|  1.0000e+00|  1.0000e+00|
|         878|  1.6537e-01|   -1.804188|    0.467335|    0.015078|  1.0000e+00|  1.0000e+00|  1.0000e+00|
|         879|  1.6539e-01|   -1.804949|    0.471797|    0.014979|  1.0000e+00|  1.0000e+00|  1.0000e+00|
|         880|  1.6555e-01|   -1.820177|    0.475905|    0.014803|  1.0000e+00|  1.0000e+00|  1.0000e+00|
|         881|  1.6570e-01|   -1.860453|    0.480660|    0.014620|  1.0000e+00|  1.0000e+00|  1.0000e+00|
|         882|  1.6585e-01|   -1.883996|    0.485390|    0.014382|  1.0000e+00|  1.0000e+00|  1.0000e+00|
|         883|  1.6603e-01|   -1.887007|    0.487432|    0.014185|  1.0000e+00|  1.0000e+00|  1.0000e+00|
|         884|  1.6619e-01|   -1.893479|    0.489474|    0.014063|  1.0000e+00|  1.0000e+00|  1.0000e+00|
|         885|  1.6634e-01|   -1.917614|    0.490279|    0.013992|  1.0000e+00|  1.0000e+00|  1.0000e+00|
|         886|  1.6650e-01|   -1.915165|    0.489644|    0.013954|  1.0000e+00|  1.0000e+00|  1.0000e+00|
|         887|  1.6666e-01|   -1.954796|    0.493164|    0.013999|  1.0000e+00|  1.0000e+00|  1.0000e+00|
|         888|  1.6681e-01|   -1.975074|    0.492184|    0.014076|  1.0000e+00|  1.0000e+00|  1.0000e+00|
|         889|  1.6697e-01|   -1.837048|    0.488452|    0.014158|  1.0000e+00|  1.0000e+00|  1.0000e+00|
|         890|  1.6717e-01|   -1.937215|    0.486531|    0.014187|  1.0000e+00|  1.0000e+00|  1.0000e+00|
|         891|  1.6732e-01|   -1.895748|    0.486477|    0.014156|  1.0000e+00|  1.1000e+00|  1.1000e+00|
|         892|  1.6750e-01|   -1.853031|    0.484319|    0.014227|  1.0000e+00|  1.2100e+00|  1.2099e+00|
|         893|  1.6766e-01|   -1.479493|    0.471846|    0.014706|  1.0000e+00|  1.0000e+00|  1.0000e+00|
|         894|  1.6790e-01|   -1.867991|    0.473084|    0.014835|  1.0000e+00|  1.1000e+00|  1.1000e+00|
|         895|  1.6812e-01|   -1.860950|    0.474525|    0.014890|  1.0000e+00|  1.2100e+00|  1.2099e+00|
|         896|  1.6828e-01|   -1.661095|    0.470449|    0.015047|  1.0000e+00|  1.0000e+00|  1.0000e+00|
|         897|  1.6833e-01|   -1.841240|    0.472523|    0.015048|  1.0000e+00|  1.1000e+00|  1.1000e+00|
|         898|  1.6825e-01|   -1.869353|    0.473495|    0.015072|  1.0000e+00|  1.2100e+00|  1.2099e+00|
|         899|  1.6817e-01|   -1.902850|    0.476438|    0.015078|  1.0000e+00|  1.3310e+00|  1.3309e+00|
|         900|  1.6809e-01|   -1.691720|    0.476634|    0.015219|  1.0000e+00|  1.4641e+00|  1.4639e+00|
|         901|  1.6802e-01|   -1.794943|    0.475693|    0.015344|  1.0000e+00|  1.6105e+00|  1.6103e+00|
|         902|  1.6794e-01|   -1.879047|    0.480169|    0.015351|  1.0000e+00|  1.7716e+00|  1.7713e+00|
|         903|  1.6786e-01|   -1.880986|    0.484301|    0.015331|  1.0000e+00|  1.9487e+00|  1.9484e+00|
|         904|  1.6780e-01|   -1.594041|    0.475650|    0.015571|  1.0000e+00|  1.0000e+00|  1.0000e+00|
|         905|  1.6773e-01|   -1.730095|    0.480114|    0.015382|  1.0000e+00|  1.0000e+00|  1.0000e+00|
|         906|  1.6768e-01|   -1.821024|    0.485120|    0.015285|  1.0000e+00|  1.1000e+00|  1.1000e+00|
|         907|  1.6760e-01|   -1.734899|    0.485719|    0.015255|  1.0000e+00|  1.0000e+00|  1.0000e+00|
|         908|  1.6752e-01|   -1.795066|    0.490534|    0.015168|  1.0000e+00|  1.1000e+00|  1.1000e+00|
|         909|  1.6745e-01|   -1.929321|    0.494345|    0.015085|  1.0000e+00|  1.2100e+00|  1.2099e+00|
|         910|  1.6737e-01|   -1.822197|    0.496538|    0.015049|  1.0000e+00|  1.3310e+00|  1.3309e+00|
|         911|  1.6753e-01|   -1.736416|    0.499211|    0.014849|  1.0000e+00|  1.4641e+00|  1.4639e+00|
|         912|  1.6770e-01|   -1.779829|    0.497473|    0.014783|  1.0000e+00|  1.6105e+00|  1.6103e+00|
|         913|  1.6787e-01|   -1.838872|    0.498547|    0.014614|  1.0000e+00|  1.7716e+00|  1.7712e+00|
|         914|  1.6804e-01|   -1.818843|    0.504737|    0.014474|  1.0000e+00|  1.9487e+00|  1.9483e+00|
|         915|  1.6821e-01|   -1.476668|    0.495654|    0.014690|  1.0000e+00|  1.0000e+00|  1.0000e+00|
|         916|  1.6839e-01|   -1.879706|    0.499737|    0.014617|  1.0000e+00|  1.1000e+00|  1.1000e+00|
|         917|  1.6856e-01|   -1.855120|    0.500353|    0.014491|  1.0000e+00|  1.0000e+00|  1.0000e+00|
|         918|  1.6872e-01|   -1.740052|    0.501704|    0.014477|  1.0000e+00|  1.0000e+00|  1.0000e+00|
|         919|  1.6889e-01|   -1.801072|    0.498923|    0.014523|  1.0000e+00|  1.0000e+00|  1.0000e+00|
|         920|  1.6912e-01|   -1.787666|    0.495842|    0.014603|  1.0000e+00|  1.0000e+00|  1.0000e+00|
|         921|  1.6929e-01|   -1.631887|    0.487827|    0.014827|  1.0000e+00|  1.0000e+00|  1.0000e+00|
|         922|  1.6945e-01|   -1.771091|    0.491577|    0.014799|  1.0000e+00|  1.0000e+00|  1.0000e+00|
|         923|  1.6960e-01|   -1.827438|    0.491283|    0.014756|  1.0000e+00|  1.0000e+00|  1.0000e+00|
|         924|  1.6975e-01|   -1.844991|    0.492656|    0.014686|  1.0000e+00|  1.0000e+00|  1.0000e+00|
|         925|  1.6990e-01|   -1.767133|    0.491035|    0.014681|  1.0000e+00|  1.0000e+00|  1.0000e+00|
|         926|  1.7000e-01|   -1.812831|    0.493463|    0.014568|  1.0000e+00|  1.0000e+00|  1.0000e+00|
|         927|  1.6991e-01|   -1.853388|    0.495851|    0.014444|  1.0000e+00|  1.1000e+00|  1.1000e+00|
|         928|  1.6984e-01|   -1.745355|    0.497913|    0.014379|  1.0000e+00|  1.0000e+00|  1.0000e+00|
|         929|  1.6976e-01|   -1.831037|    0.498587|    0.014411|  1.0000e+00|  1.0000e+00|  1.0000e+00|
|         930|  1.6967e-01|   -1.743016|    0.496981|    0.014348|  1.0000e+00|  1.0000e+00|  1.0000e+00|
|         931|  1.6960e-01|   -1.674679|    0.494183|    0.014377|  1.0000e+00|  1.0000e+00|  1.0000e+00|
|         932|  1.6952e-01|   -1.721309|    0.489661|    0.014218|  1.0000e+00|  1.0000e+00|  1.0000e+00|
|         933|  1.6944e-01|   -1.656706|    0.488280|    0.014182|  1.0000e+00|  1.0000e+00|  1.0000e+00|
|         934|  1.6936e-01|   -1.897327|    0.484554|    0.014089|  1.0000e+00|  1.1000e+00|  1.1000e+00|
|         935|  1.6929e-01|   -1.868430|    0.483786|    0.014089|  1.0000e+00|  1.2100e+00|  1.2099e+00|
|         936|  1.6921e-01|   -1.721804|    0.480404|    0.014106|  1.0000e+00|  1.0000e+00|  1.0000e+00|
|         937|  1.6913e-01|   -1.614274|    0.480349|    0.014130|  1.0000e+00|  1.0000e+00|  1.0000e+00|
|         938|  1.6905e-01|   -1.708191|    0.476861|    0.014139|  1.0000e+00|  1.0000e+00|  1.0000e+00|
|         939|  1.6897e-01|   -1.772823|    0.476540|    0.014173|  1.0000e+00|  1.0000e+00|  1.0000e+00|
|         940|  1.6889e-01|   -1.740324|    0.473346|    0.014124|  1.0000e+00|  1.0000e+00|  1.0000e+00|
|         941|  1.6896e-01|   -1.731032|    0.473923|    0.014133|  1.0000e+00|  1.0000e+00|  1.0000e+00|
|         942|  1.6923e-01|   -1.755857|    0.476872|    0.013915|  1.0000e+00|  1.0000e+00|  1.0000e+00|
|         943|  1.6950e-01|   -1.830526|    0.483664|    0.013809|  1.0000e+00|  1.0000e+00|  1.0000e+00|
|         944|  1.6974e-01|   -1.845103|    0.488498|    0.013529|  1.0000e+00|  1.1000e+00|  1.1000e+00|
|         945|  1.7001e-01|   -1.834734|    0.495411|    0.013306|  1.0000e+00|  1.0000e+00|  1.0000e+00|
|         946|  1.7028e-01|   -1.908551|    0.501330|    0.012961|  1.0000e+00|  1.0000e+00|  1.0000e+00|
|         947|  1.7056e-01|   -1.871541|    0.508211|    0.012636|  1.0000e+00|  1.0000e+00|  1.0000e+00|
|         948|  1.7084e-01|   -1.931366|    0.511443|    0.012332|  1.0000e+00|  1.0000e+00|  1.0000e+00|
|         949|  1.7111e-01|   -1.863317|    0.513488|    0.012058|  1.0000e+00|  1.0000e+00|  1.0000e+00|
|         950|  1.7137e-01|   -1.878119|    0.514576|    0.011832|  1.0000e+00|  1.0000e+00|  1.0000e+00|
|         951|  1.7158e-01|   -1.861408|    0.515018|    0.011517|  1.0000e+00|  1.0000e+00|  1.0000e+00|
|         952|  1.7159e-01|   -1.866201|    0.515925|    0.011411|  1.0000e+00|  1.0000e+00|  1.0000e+00|
|         953|  1.7150e-01|   -1.368879|    0.515938|    0.011500|  1.0000e+00|  1.0000e+00|  1.0000e+00|
|         954|  1.7144e-01|   -1.371829|    0.513063|    0.011626|  1.0000e+00|  1.1000e+00|  1.1000e+00|
|         955|  1.7138e-01|   -1.417845|    0.507079|    0.011839|  1.0000e+00|  1.2100e+00|  1.2099e+00|
|         956|  1.7134e-01|   -1.394801|    0.497068|    0.012067|  1.0000e+00|  1.3310e+00|  1.3309e+00|
|         957|  1.7129e-01|   -1.401766|    0.484831|    0.012361|  1.0000e+00|  1.4641e+00|  1.4639e+00|
|         958|  1.7125e-01|   -1.506450|    0.474116|    0.012669|  1.0000e+00|  1.6105e+00|  1.6103e+00|
|         959|  1.7120e-01|   -1.543287|    0.464080|    0.012986|  1.0000e+00|  1.7716e+00|  1.7712e+00|
|         960|  1.7117e-01|   -1.611982|    0.453405|    0.013268|  1.0000e+00|  1.9487e+00|  1.9483e+00|
|         961|  1.7112e-01|   -1.559695|    0.448457|    0.013383|  1.0000e+00|  2.1436e+00|  2.1431e+00|
|         962|  1.7104e-01|   -1.494247|    0.443189|    0.013385|  1.0000e+00|  2.3579e+00|  2.3574e+00|
|         963|  1.7097e-01|   -1.494981|    0.437280|    0.013496|  1.0000e+00|  2.5937e+00|  2.5930e+00|
|         964|  1.7091e-01|   -1.670814|    0.433312|    0.013162|  1.0000e+00|  2.8531e+00|  2.8522e+00|
|         965|  1.7085e-01|   -1.556708|    0.430730|    0.013335|  1.0000e+00|  3.1384e+00|  3.1374e+00|
|         966|  1.7096e-01|   -1.746136|    0.430079|    0.013552|  1.0000e+00|  3.4523e+00|  3.4510e+00|
|         967|  1.7115e-01|   -1.534528|    0.436431|    0.013663|  1.0000e+00|  3.7975e+00|  3.7961e+00|
|         968|  1.7134e-01|   -1.531910|    0.441061|    0.013747|  1.0000e+00|  4.1772e+00|  4.1756e+00|
|         969|  1.7158e-01|   -1.711460|    0.441788|    0.013828|  1.0000e+00|  4.5950e+00|  4.5930e+00|
|         970|  1.7181e-01|   -1.509328|    0.432962|    0.014188|  1.0000e+00|  5.0545e+00|  5.0522e+00|
|         971|  1.7199e-01|   -1.586570|    0.433548|    0.014619|  1.0000e+00|  5.5599e+00|  5.5573e+00|
|         972|  1.7218e-01|   -1.651428|    0.446318|    0.014488|  1.0000e+00|  6.1159e+00|  6.1129e+00|
|         973|  1.7238e-01|   -1.615343|    0.451474|    0.013803|  1.0000e+00|  6.7275e+00|  6.7240e+00|
|         974|  1.7258e-01|   -1.517975|    0.451118|    0.013857|  1.0000e+00|  7.4002e+00|  7.3963e+00|
|         975|  1.7278e-01|   -1.445395|    0.445299|    0.014312|  1.0000e+00|  8.1403e+00|  8.1357e+00|
|         976|  1.7298e-01|   -1.476973|    0.456586|    0.014182|  1.0000e+00|  8.9543e+00|  8.9490e+00|
|         977|  1.7324e-01|   -1.277599|    0.440226|    0.014847|  1.0000e+00|  9.8497e+00|  9.8436e+00|
|         978|  1.7356e-01|   -1.118474|    0.422896|    0.015263|  1.0000e+00|  1.0835e+01|  1.0827e+01|
|         979|  1.7381e-01|   -1.083726|    0.405643|    0.015787|  1.0000e+00|  1.1918e+01|  1.1909e+01|
|         980|  1.7394e-01|   -1.081227|    0.393877|    0.016524|  1.0000e+00|  1.3110e+01|  1.3100e+01|
|         981|  1.7388e-01|   -1.020843|    0.387844|    0.017086|  1.0000e+00|  1.4421e+01|  1.4409e+01|
|         982|  1.7384e-01|   -1.091609|    0.390117|    0.016806|  1.0000e+00|  1.5863e+01|  1.5850e+01|
|         983|  1.7379e-01|   -1.471816|    0.383334|    0.016997|  1.0000e+00|  1.7449e+01|  1.7434e+01|
|         984|  1.7375e-01|   -1.455237|    0.378537|    0.016882|  1.0000e+00|  1.9194e+01|  1.9177e+01|
|         985|  1.7370e-01|   -1.327834|    0.374463|    0.017051|  1.0000e+00|  2.1114e+01|  2.1094e+01|
|         986|  1.7366e-01|   -1.406105|    0.388172|    0.016902|  1.0000e+00|  2.3225e+01|  2.3203e+01|
|         987|  1.7362e-01|   -1.516012|    0.399346|    0.016950|  1.0000e+00|  2.5548e+01|  2.5522e+01|
|         988|  1.7357e-01|   -1.508550|    0.418061|    0.017045|  1.0000e+00|  2.8102e+01|  2.8073e+01|
|         989|  1.7353e-01|   -1.624886|    0.449545|    0.015931|  1.0000e+00|  3.0913e+01|  3.0879e+01|
|         990|  1.7349e-01|   -1.700226|    0.475338|    0.015736|  1.0000e+00|  3.4004e+01|  3.3966e+01|
|         991|  1.7349e-01|   -1.746804|    0.503518|    0.015334|  1.0000e+00|  3.7404e+01|  3.7362e+01|
|         992|  1.7373e-01|   -1.597268|    0.492951|    0.016426|  1.0000e+00|  4.1145e+01|  4.1097e+01|
|         993|  1.7396e-01|   -1.528837|    0.485047|    0.017533|  1.0000e+00|  4.5259e+01|  4.5205e+01|
|         994|  1.7419e-01|   -1.512486|    0.471727|    0.018551|  1.0000e+00|  4.9785e+01|  4.9724e+01|
|         995|  1.7442e-01|   -1.645115|    0.463382|    0.020206|  1.0000e+00|  5.4764e+01|  5.4695e+01|
|         996|  1.7464e-01|   -1.545138|    0.455829|    0.022021|  1.0000e+00|  6.0240e+01|  6.0162e+01|
|         997|  1.7487e-01|   -1.571664|    0.450004|    0.023964|  1.0000e+00|  6.6264e+01|  6.6176e+01|
|         998|  1.7509e-01|   -1.564161|    0.462362|    0.024845|  1.0000e+00|  7.2890e+01|  7.2790e+01|
|         999|  1.7531e-01|   -1.637622|    0.459966|    0.025686|  1.0000e+00|  7.2890e+01|  7.2790e+01|
|        1000|  1.7553e-01|   -1.621654|    0.460200|    0.025660|  1.0000e+00|  8.0180e+01|  8.0066e+01|
+-----------------------------------------------------------------------+
|        File Writing Summary       |              Filename             |
+-----------------------------------------------------------------------+
|SU2 binary restart                 |restart_flow.dat                   |

Writing the forces breakdown file (forces_breakdown.dat).
|Paraview                           |flow.vtu                           |

Writing the forces breakdown file (forces_breakdown.dat).
|Paraview surface                   |surface_flow.vtu                   |

Writing the forces breakdown file (forces_breakdown.dat).
+-----------------------------------------------------------------------+
+-------------------------------------------------------------------------------------------------------+
|  Inner_Iter|   Time(sec)|    rms[Rho]|          CL|          CD|     Min CFL|     Max CFL|     Avg CFL|
+-------------------------------------------------------------------------------------------------------+
|        1001|  1.7595e-01|   -1.610377|    0.441611|    0.026151|  1.0000e+00|  8.8197e+01|  8.8069e+01|
|        1002|  1.7590e-01|   -1.658013|    0.445183|    0.026589|  1.0000e+00|  4.4099e+01|  4.4034e+01|
|        1003|  1.7586e-01|   -1.689221|    0.454794|    0.026694|  1.0000e+00|  4.8509e+01|  4.8436e+01|
|        1004|  1.7581e-01|   -1.730849|    0.474576|    0.026131|  1.0000e+00|  5.3359e+01|  5.3278e+01|
|        1005|  1.7577e-01|   -1.777346|    0.490941|    0.026278|  1.0000e+00|  5.8695e+01|  5.8604e+01|
|        1006|  1.7573e-01|   -1.723496|    0.505150|    0.026427|  1.0000e+00|  6.4565e+01|  6.4463e+01|
|        1007|  1.7569e-01|   -1.454216|    0.486064|    0.027746|  1.0000e+00|  3.2282e+01|  3.2232e+01|
|        1008|  1.7564e-01|   -1.533714|    0.471049|    0.027742|  1.0000e+00|  3.5511e+01|  3.5454e+01|
|        1009|  1.7560e-01|   -1.569255|    0.454441|    0.027750|  1.0000e+00|  1.7755e+01|  1.7727e+01|
|        1010|  1.7555e-01|   -1.648095|    0.451335|    0.028215|  1.0000e+00|  1.9531e+01|  1.9500e+01|
|        1011|  1.7551e-01|   -1.614130|    0.445919|    0.028898|  1.0000e+00|  9.7655e+00|  9.7501e+00|
|        1012|  1.7546e-01|   -1.720437|    0.438356|    0.029160|  1.0000e+00|  4.8827e+00|  4.8754e+00|
|        1013|  1.7562e-01|   -1.766748|    0.439223|    0.029179|  1.0000e+00|  5.3710e+00|  5.3629e+00|
|        1014|  1.7579e-01|   -1.807188|    0.447499|    0.028729|  1.0000e+00|  5.9081e+00|  5.8991e+00|
|        1015|  1.7595e-01|   -1.765562|    0.458744|    0.028514|  1.0000e+00|  6.4989e+00|  6.4890e+00|
|        1016|  1.7613e-01|   -1.803022|    0.467232|    0.028573|  1.0000e+00|  7.1488e+00|  7.1378e+00|
|        1017|  1.7631e-01|   -1.824706|    0.471637|    0.028556|  1.0000e+00|  7.8637e+00|  7.8516e+00|
|        1018|  1.7649e-01|   -1.796200|    0.472555|    0.028416|  1.0000e+00|  8.6500e+00|  8.6366e+00|
|        1019|  1.7668e-01|   -1.860041|    0.475850|    0.028349|  1.0000e+00|  9.5151e+00|  9.5002e+00|
|        1020|  1.7687e-01|   -1.868511|    0.479111|    0.028378|  1.0000e+00|  1.0467e+01|  1.0450e+01|
|        1021|  1.7707e-01|   -1.858547|    0.474273|    0.028806|  1.0000e+00|  1.1513e+01|  1.1495e+01|
|        1022|  1.7718e-01|   -1.826640|    0.461015|    0.029125|  1.0000e+00|  1.2665e+01|  1.2645e+01|
|        1023|  1.7713e-01|   -1.793708|    0.459887|    0.028849|  1.0000e+00|  1.3931e+01|  1.3909e+01|
|        1024|  1.7708e-01|   -1.732470|    0.458978|    0.028749|  1.0000e+00|  1.5324e+01|  1.5300e+01|
|        1025|  1.7704e-01|   -1.790379|    0.466355|    0.028928|  1.0000e+00|  1.6856e+01|  1.6829e+01|
|        1026|  1.7699e-01|   -1.729383|    0.467597|    0.029404|  1.0000e+00|  1.8542e+01|  1.8512e+01|
|        1027|  1.7695e-01|   -1.717335|    0.472189|    0.029500|  1.0000e+00|  2.0396e+01|  2.0363e+01|
|        1028|  1.7690e-01|   -1.525154|    0.482169|    0.028849|  1.0000e+00|  2.2436e+01|  2.2399e+01|
|        1029|  1.7686e-01|   -1.722171|    0.486116|    0.028678|  1.0000e+00|  2.4680e+01|  2.4638e+01|
|        1030|  1.7682e-01|   -1.790117|    0.484879|    0.028075|  1.0000e+00|  2.7148e+01|  2.7102e+01|
|        1031|  1.7677e-01|   -1.724724|    0.472522|    0.027707|  1.0000e+00|  2.9862e+01|  2.9811e+01|
|        1032|  1.7673e-01|   -1.704149|    0.452277|    0.028219|  1.0000e+00|  3.2849e+01|  3.2792e+01|
|        1033|  1.7669e-01|   -1.514552|    0.427947|    0.029334|  1.0000e+00|  3.6133e+01|  3.6070e+01|
|        1034|  1.7664e-01|   -1.670928|    0.431431|    0.028910|  1.0000e+00|  3.9747e+01|  3.9677e+01|
|        1035|  1.7670e-01|   -1.680161|    0.461417|    0.027757|  1.0000e+00|  4.3721e+01|  4.3644e+01|
|        1036|  1.7691e-01|   -1.670478|    0.490900|    0.026541|  1.0000e+00|  4.8094e+01|  4.8007e+01|
|        1037|  1.7713e-01|   -1.649022|    0.505996|    0.025535|  1.0000e+00|  5.2903e+01|  5.2807e+01|
|        1038|  1.7736e-01|   -1.643399|    0.523987|    0.024312|  1.0000e+00|  5.8193e+01|  5.8087e+01|
|        1039|  1.7763e-01|   -1.610299|    0.555806|    0.022072|  1.0000e+00|  6.4013e+01|  6.3894e+01|
|        1040|  1.7793e-01|   -1.641496|    0.569392|    0.020405|  1.0000e+00|  3.2006e+01|  3.1947e+01|
|        1041|  1.7815e-01|   -1.635710|    0.575420|    0.019765|  1.0000e+00|  1.6003e+01|  1.5974e+01|
|        1042|  1.7841e-01|   -1.638599|    0.579518|    0.019473|  1.0000e+00|  1.7603e+01|  1.7571e+01|
|        1043|  1.7852e-01|   -1.619056|    0.578107|    0.019155|  1.0000e+00|  8.8017e+00|  8.7855e+00|
|        1044|  1.7846e-01|   -1.650093|    0.572643|    0.018927|  1.0000e+00|  9.6819e+00|  9.6640e+00|
|        1045|  1.7842e-01|   -1.727227|    0.572073|    0.018678|  1.0000e+00|  1.0650e+01|  1.0630e+01|
|        1046|  1.7837e-01|   -1.639628|    0.564408|    0.018607|  1.0000e+00|  1.1715e+01|  1.1693e+01|


Error in "void CSolver::SetResidual_RMS(const CGeometry*, const CConfig*)": 
-------------------------------------------------------------------------
SU2 has diverged (NaN detected).
------------------------------ Error Exit -------------------------------


