
-------------------------------------------------------------------------
|    ___ _   _ ___                                                      |
|   / __| | | |_  )   Release 8.0.0 "Harrier"                           |
|   \__ \ |_| |/ /                                                      |
|   |___/\___//___|   Suite (Computational Fluid Dynamics Code)         |
|                                                                       |
-------------------------------------------------------------------------
| SU2 Project Website: https://su2code.github.io                        |
|                                                                       |
| The SU2 Project is maintained by the SU2 Foundation                   |
| (http://su2foundation.org)                                            |
-------------------------------------------------------------------------
| Copyright 2012-2023, SU2 Contributors                                 |
|                                                                       |
| SU2 is free software; you can redistribute it and/or                  |
| modify it under the terms of the GNU Lesser General Public            |
| License as published by the Free Software Foundation; either          |
| version 2.1 of the License, or (at your option) any later version.    |
|                                                                       |
| SU2 is distributed in the hope that it will be useful,                |
| but WITHOUT ANY WARRANTY; without even the implied warranty of        |
| MERCHANTABILITY or FITNESS FOR A PARTICULAR PURPOSE. See the GNU      |
| Lesser General Public License for more details.                       |
|                                                                       |
| You should have received a copy of the GNU Lesser General Public      |
| License along with SU2. If not, see <http://www.gnu.org/licenses/>.   |
-------------------------------------------------------------------------

Parsing config file for zone 0

----------------- Physical Case Definition ( Zone 0 ) -------------------
Compressible RANS equations.
Turbulence model: Menter's k-omega SST-2003m with no production modification.
Hybrid RANS/LES: No Hybrid RANS/LES
Mach number: 0.729.
Angle of attack (AoA): 2 deg, and angle of sideslip (AoS): 0 deg.
Reynolds number: 6.5e+06. Reference length 1.
Reading and writing binary SU2 native restart files.
Read flow solution from: restart_flow.dat.
Dimensional simulation.
The reference area is 1 m^2.
The semi-span will be computed using the max y(3D) value.
The reference length is 1 m.
Reference origin for moment evaluation is (0.25, 0, 0).
Surface(s) where the force coefficients are evaluated: AIRFOIL.

Surface(s) plotted in the output file: AIRFOIL.
Input mesh file name: Mesh.su2

--------------- Space Numerical Integration ( Zone 0 ) ------------------
Roe (with entropy fix = 0.001) solver for the flow inviscid terms.
Standard Roe without low-dissipation function.
Second order integration in space, with slope limiter.
Venkatakrishnan slope-limiting method, with constant: 0.03.
The reference element size is: 1. 
Scalar upwind solver for the turbulence model.
First order integration in space.
Average of gradients with correction (viscous flow terms).
Average of gradients with correction (viscous turbulence terms).
Gradient for upwind reconstruction: inverse-distance weighted Least-Squares.
Gradient for viscous and source terms: inverse-distance weighted Least-Squares.

--------------- Time Numerical Integration  ( Zone 0 ) ------------------
Local time stepping (steady state simulation).
Euler implicit method for the flow equations.
FGMRES is used for solving the linear system.
Using a ILU(0) preconditioning.
Convergence criteria of the linear solver: 0.01.
Max number of linear iterations: 5.
CFL adaptation. Factor down: 0.5, factor up: 1.1,
                lower limit: 50, upper limit: 10000,
                acceptable linear residual: 0.01.
Courant-Friedrichs-Lewy number:       20
Euler implicit time integration for the turbulence model.

------------------ Convergence Criteria  ( Zone 0 ) ---------------------
Maximum number of solver subiterations: 5000.
Begin convergence monitoring at iteration 10.
Residual minimum value: 1e-14.
Cauchy series min. value: 1e-06.
Number of Cauchy elements: 100.
Begin windowed time average at iteration 0.

-------------------- Output Information ( Zone 0 ) ----------------------
File writing frequency: 
+------------------------------------+
|                     File| Frequency|
+------------------------------------+
|                  RESTART|      1000|
|                 PARAVIEW|      1000|
|         SURFACE_PARAVIEW|      1000|
+------------------------------------+
Writing the convergence history file every 1 inner iterations.
Writing the screen convergence history every 1 inner iterations.
The tabular file format is CSV (.csv).
Convergence history file name: historyThird.
Forces breakdown file name: forces_breakdown.dat.
Surface file name: surface_flow.
Volume file name: flow.
Restart file name: restart_flow.dat.

------------- Config File Boundary Information ( Zone 0 ) ---------------
+-----------------------------------------------------------------------+
|                        Marker Type|                        Marker Name|
+-----------------------------------------------------------------------+
|                          Far-field|                           FARFIELD|
+-----------------------------------------------------------------------+
|                     Heat flux wall|                            AIRFOIL|
+-----------------------------------------------------------------------+

-------------------- Output Preprocessing ( Zone 0 ) --------------------

WARNING: SURFACE_PRESSURE_DROP can only be computed for at least 2 surfaces (outlet, inlet, ...)

Screen output fields: INNER_ITER, WALL_TIME, RMS_DENSITY, LIFT, DRAG, LINSOL_ITER, LINSOL_RESIDUAL, MIN_CFL, MAX_CFL, AVG_CFL
  Info: Ignoring the following history output groups:
  RESIDUALS, CFL
History output group(s): INNER_ITER, LIFT, DRAG
Convergence field(s): LIFT
Warning: No (valid) fields chosen for time convergence monitoring. Time convergence monitoring inactive.
  Info: Ignoring the following volume output fields/groups:
  RESIDUALS
Volume output fields: SOLUTION, PRIMITIVE, GRADIENTS, HESSIANS, EIGENVALUES, WALL_DISTANCE, COORDINATES

------------------- Geometry Preprocessing ( Zone 0 ) -------------------
Two dimensional problem.
46571 grid points before partitioning.
92741 volume elements before partitioning.
2 surface markers.
361 boundary elements in index 0 (Marker = AIRFOIL).
40 boundary elements in index 1 (Marker = FARFIELD).
Executing the partitioning functions.
Building the graph adjacency structure.
Calling ParMETIS... graph partitioning complete (1535 edge cuts).
Distributing ParMETIS coloring.
Rebalancing vertices.
Rebalancing volume element connectivity.
Rebalancing markers and surface elements.
48115 vertices including ghost points. 
94277 interior elements including halo cells. 
94277 triangles.
Establishing MPI communication patterns.
Setting point connectivity.
Renumbering points (Reverse Cuthill McKee Ordering).
Recomputing point connectivity.
Setting element connectivity.
Checking the numerical grid orientation.
All volume elements are correctly orientend.
All surface elements are correctly orientend.
Identifying edges and vertices.
Setting the control volume structure.
Area of the computational grid: 31301.3.
Searching for the closest normal neighbors to the surfaces.
Storing a mapping from global to local point index.
Compute the surface curvature.
Max K: 17434.1. Mean K: 49.5873. Standard deviation K: 869.483.
Checking for periodicity.
Computing mesh quality statistics for the dual control volumes.
+--------------------------------------------------------------+
|           Mesh Quality Metric|        Minimum|        Maximum|
+--------------------------------------------------------------+
|    Orthogonality Angle (deg.)|        35.9977|        89.7373|
|     CV Face Area Aspect Ratio|        1.00113|        1828.92|
|           CV Sub-Volume Ratio|        1.00005|        37.4237|
+--------------------------------------------------------------+
Finding max control volume width.
Communicating number of neighbors.
Wetted area = 2.03238 m.
Area projection in the x-plane = 0.123596 m, y-plane = 0.999907 m.
Max. coordinate in the x-direction = 1 m, y-direction = 0.0643503 m.
Min. coordinate in the x-direction = 0 m, y-direction = -0.0577812 m.
Computing wall distances.

-------------------- Solver Preprocessing ( Zone 0 ) --------------------
Viscous flow: Computing pressure using the ideal gas law
based on the free-stream temperature and a density computed
from the Reynolds number.
Force coefficients computed using free-stream values.

-- Models:
+------------------------------------------------------------------------------+
|          Viscosity Model|        Conductivity Model|              Fluid Model|
+------------------------------------------------------------------------------+
|               SUTHERLAND|          CONSTANT_PRANDTL|             STANDARD_AIR|
+------------------------------------------------------------------------------+
-- Fluid properties:
+------------------------------------------------------------------------------+
|                  Name|    Dim. value|    Ref. value|      Unit|Non-dim. value|
+------------------------------------------------------------------------------+
|        Ref. Viscosity|     1.716e-05|             1|   N.s/m^2|     1.716e-05|
|      Sutherland Temp.|        273.15|             1|         K|        273.15|
|     Sutherland Const.|         110.4|             1|         K|         110.4|
+------------------------------------------------------------------------------+
|        Prandtl (Lam.)|             -|             -|         -|          0.72|
|       Prandtl (Turb.)|             -|             -|         -|           0.9|
+------------------------------------------------------------------------------+
|          Gas Constant|       287.058|             1|  N.m/kg.K|       287.058|
|      Spec. Heat Ratio|             -|             -|         -|           1.4|
+------------------------------------------------------------------------------+
-- Initial and free-stream conditions:
+------------------------------------------------------------------------------+
|                  Name|    Dim. value|    Ref. value|      Unit|Non-dim. value|
+------------------------------------------------------------------------------+
|       Static Pressure|       38779.2|             1|        Pa|       38779.2|
|               Density|      0.468824|             1|    kg/m^3|      0.468824|
|           Temperature|        288.15|             1|         K|        288.15|
|          Total Energy|        237791|             1|   m^2/s^2|        237791|
|            Velocity-X|       247.925|             1|       m/s|       247.925|
|            Velocity-Y|       8.65775|             1|       m/s|       8.65775|
|    Velocity Magnitude|       248.077|             1|       m/s|       248.077|
+------------------------------------------------------------------------------+
|             Viscosity|    1.7893e-05|             1|   N.s/m^2|    1.7893e-05|
|          Conductivity|             -|             1|   W/m^2.K|             -|
|     Turb. Kin. Energy|       230.782|             1|   m^2/s^2|       230.782|
|     Spec. Dissipation|        604687|             1|       1/s|        604687|
+------------------------------------------------------------------------------+
|           Mach Number|             -|             -|         -|         0.729|
|       Reynolds Number|             -|             -|         -|       6.5e+06|
+------------------------------------------------------------------------------+
Initialize Jacobian structure (Navier-Stokes). MG level: 0.
Initialize Jacobian structure (SST model).

------------------- Numerics Preprocessing ( Zone 0 ) -------------------

----------------- Integration Preprocessing ( Zone 0 ) ------------------

------------------- Iteration Preprocessing ( Zone 0 ) ------------------
Euler/Navier-Stokes/RANS fluid iteration.

------------------------------ Begin Solver -----------------------------

Simulation Run using the Single-zone Driver
WARNING: SU2 was not compiled for an AVX-capable architecture. Performance could be better,
         see https://su2code.github.io/docs_v7/Build-SU2-Linux-MacOS/#compiler-optimizations
+---------------------------------------------------------------------------------------------------------------------------------+
|  Inner_Iter|   Time(sec)|    rms[Rho]|          CL|          CD|Linear_Solve|   LinSolRes|     Min CFL|     Max CFL|     Avg CFL|
+---------------------------------------------------------------------------------------------------------------------------------+
|           0|  8.7989e-02|   -1.601433|    0.448995|    0.026138|           3|   -2.369709|  5.0000e+01|  5.0000e+01|  5.0000e+01|
|           1|  9.1764e-02|   -1.631686|    0.456428|    0.026957|           4|   -2.028061|  5.0000e+01|  5.5000e+01|  5.4992e+01|
|           2|  9.1465e-02|   -1.657988|    0.457481|    0.028260|           4|   -2.043131|  5.0000e+01|  6.0500e+01|  6.0484e+01|
|           3|  9.2840e-02|   -1.671040|    0.467512|    0.027907|           5|   -2.119336|  5.0000e+01|  6.6550e+01|  6.6525e+01|
|           4|  9.2447e-02|   -1.632075|    0.483480|    0.027560|           4|   -2.023868|  5.0000e+01|  7.3205e+01|  7.3171e+01|
|           5|  9.3082e-02|   -1.645350|    0.489525|    0.027277|           5|   -1.924145|  5.0000e+01|  7.3205e+01|  7.3170e+01|
|           6|  9.3649e-02|   -1.668596|    0.497675|    0.026309|           5|   -2.168155|  5.0000e+01|  8.0526e+01|  8.0479e+01|
|           7|  9.5772e-02|   -1.597486|    0.494586|    0.025474|           4|   -2.010782|  5.0000e+01|  8.8578e+01|  8.8519e+01|
|           8|  1.1087e-01|   -1.693520|    0.507090|    0.023350|           5|   -1.084054|  5.0000e+01|  5.0000e+01|  5.0000e+01|
|           9|  1.3526e-01|   -1.649660|    0.518007|    0.023771|           5|   -1.811937|  5.0000e+01|  5.0000e+01|  5.0000e+01|
|          10|  2.1370e-01|   -1.430906|    0.517143|    0.023996|           5|   -0.438785|  5.0000e+01|  5.0000e+01|  5.0000e+01|
|          11|  2.7323e-01|   -1.476789|    0.515664|    0.024257|           5|   -0.430433|  5.0000e+01|  5.0000e+01|  5.0000e+01|
|          12|  3.3504e-01|   -1.464427|    0.515029|    0.024216|           5|   -0.418138|  5.0000e+01|  5.0000e+01|  5.0000e+01|
|          13|  3.6271e-01|   -1.486833|    0.515574|    0.024224|           5|   -0.352777|  5.0000e+01|  5.0000e+01|  5.0000e+01|
|          14|  3.6025e-01|   -1.482619|    0.515716|    0.024192|           5|   -0.418724|  5.0000e+01|  5.0000e+01|  5.0000e+01|
|          15|  3.5577e-01|   -1.482172|    0.515095|    0.024267|           5|   -0.420266|  5.0000e+01|  5.0000e+01|  5.0000e+01|
|          16|  3.5201e-01|   -1.470275|    0.514424|    0.024284|           5|   -0.421696|  5.0000e+01|  5.0000e+01|  5.0000e+01|
|          17|  3.4719e-01|   -1.466596|    0.511620|    0.024241|           5|   -0.518211|  5.0000e+01|  5.0000e+01|  5.0000e+01|
|          18|  3.4417e-01|   -1.476339|    0.508455|    0.024823|           5|   -0.441259|  5.0000e+01|  5.0000e+01|  5.0000e+01|
|          19|  3.7512e-01|   -1.537165|    0.510201|    0.024784|           5|   -0.356820|  5.0000e+01|  5.0000e+01|  5.0000e+01|
|          20|  4.0850e-01|   -1.541542|    0.511534|    0.024908|           5|   -0.325290|  5.0000e+01|  5.0000e+01|  5.0000e+01|
|          21|  4.3598e-01|   -1.551194|    0.509941|    0.024976|           5|   -0.305966|  5.0000e+01|  5.0000e+01|  5.0000e+01|
|          22|  4.5360e-01|   -1.565093|    0.511080|    0.024978|           5|   -0.300040|  5.0000e+01|  5.0000e+01|  5.0000e+01|
|          23|  4.4565e-01|   -1.564348|    0.511662|    0.024990|           5|   -0.313188|  5.0000e+01|  5.0000e+01|  5.0000e+01|
|          24|  4.3895e-01|   -1.558892|    0.512987|    0.024918|           5|   -0.330138|  5.0000e+01|  5.0000e+01|  5.0000e+01|
|          25|  4.3301e-01|   -1.578149|    0.514593|    0.024970|           5|   -0.362160|  5.0000e+01|  5.0000e+01|  5.0000e+01|
|          26|  4.2718e-01|   -1.554564|    0.522030|    0.024618|           5|   -0.407626|  5.0000e+01|  5.0000e+01|  5.0000e+01|
|          27|  4.2183e-01|   -1.528416|    0.522250|    0.024925|           5|   -0.418039|  5.0000e+01|  5.0000e+01|  5.0000e+01|
|          28|  4.2038e-01|   -1.571112|    0.520955|    0.024821|           5|   -0.350684|  5.0000e+01|  5.0000e+01|  5.0000e+01|
|          29|  4.3684e-01|   -1.569542|    0.515710|    0.025102|           5|   -0.383009|  5.0000e+01|  5.0000e+01|  5.0000e+01|
|          30|  4.5139e-01|   -1.598843|    0.520501|    0.025225|           5|   -0.372732|  5.0000e+01|  5.0000e+01|  5.0000e+01|
|          31|  4.6550e-01|   -1.660318|    0.516549|    0.025244|           5|   -0.316138|  5.0000e+01|  5.0000e+01|  5.0000e+01|
|          32|  4.6582e-01|   -1.694680|    0.505862|    0.025958|           5|   -0.362656|  5.0000e+01|  5.0000e+01|  5.0000e+01|
|          33|  4.6014e-01|   -1.694405|    0.503932|    0.026111|           5|   -0.368777|  5.0000e+01|  5.0000e+01|  5.0000e+01|
|          34|  4.5474e-01|   -1.709375|    0.502632|    0.026517|           5|   -0.319533|  5.0000e+01|  5.0000e+01|  5.0000e+01|
|          35|  4.4960e-01|   -1.727225|    0.505371|    0.026653|           5|   -0.379669|  5.0000e+01|  5.0000e+01|  5.0000e+01|
|          36|  4.4514e-01|   -1.723388|    0.504283|    0.026665|           5|   -0.334854|  5.0000e+01|  5.0000e+01|  5.0000e+01|
|          37|  4.4106e-01|   -1.734371|    0.503712|    0.026632|           5|   -0.307921|  5.0000e+01|  5.0000e+01|  5.0000e+01|
|          38|  4.5126e-01|   -1.734524|    0.505317|    0.026717|           5|   -0.300213|  5.0000e+01|  5.0000e+01|  5.0000e+01|
|          39|  4.6273e-01|   -1.744288|    0.506352|    0.026765|           5|   -0.301229|  5.0000e+01|  5.0000e+01|  5.0000e+01|
|          40|  4.7378e-01|   -1.731056|    0.506242|    0.026738|           5|   -0.302287|  5.0000e+01|  5.0000e+01|  5.0000e+01|
|          41|  4.8131e-01|   -1.729332|    0.506354|    0.026696|           5|   -0.300746|  5.0000e+01|  5.0000e+01|  5.0000e+01|
|          42|  4.7629e-01|   -1.734005|    0.506144|    0.026719|           5|   -0.299903|  5.0000e+01|  5.0000e+01|  5.0000e+01|
|          43|  4.7152e-01|   -1.738055|    0.508311|    0.026701|           5|   -0.310797|  5.0000e+01|  5.0000e+01|  5.0000e+01|
|          44|  4.6736e-01|   -1.723717|    0.508347|    0.026721|           5|   -0.304440|  5.0000e+01|  5.0000e+01|  5.0000e+01|
|          45|  4.6368e-01|   -1.719828|    0.508283|    0.026709|           5|   -0.309775|  5.0000e+01|  5.0000e+01|  5.0000e+01|
|          46|  4.6125e-01|   -1.712323|    0.508102|    0.026984|           5|   -0.348817|  5.0000e+01|  5.0000e+01|  5.0000e+01|
|          47|  4.7413e-01|   -1.705278|    0.508337|    0.027125|           5|   -0.334828|  5.0000e+01|  5.0000e+01|  5.0000e+01|
|          48|  4.8586e-01|   -1.688340|    0.508420|    0.027053|           5|   -0.323359|  5.0000e+01|  5.0000e+01|  5.0000e+01|
|          49|  4.9764e-01|   -1.665580|    0.507657|    0.028188|           5|   -0.354173|  5.0000e+01|  5.0000e+01|  5.0000e+01|
|          50|  5.0034e-01|   -1.671211|    0.507495|    0.027973|           5|   -0.347504|  5.0000e+01|  5.0000e+01|  5.0000e+01|
|          51|  4.9748e-01|   -1.677615|    0.506968|    0.027540|           5|   -0.311659|  5.0000e+01|  5.0000e+01|  5.0000e+01|
|          52|  4.9410e-01|   -1.678407|    0.506478|    0.027810|           5|   -0.311086|  5.0000e+01|  5.0000e+01|  5.0000e+01|
|          53|  4.9060e-01|   -1.678008|    0.506696|    0.027305|           5|   -0.316447|  5.0000e+01|  5.0000e+01|  5.0000e+01|
|          54|  4.8737e-01|   -1.667963|    0.506952|    0.027064|           5|   -0.324468|  5.0000e+01|  5.0000e+01|  5.0000e+01|
|          55|  4.9533e-01|   -1.684598|    0.506895|    0.027178|           5|   -0.319649|  5.0000e+01|  5.0000e+01|  5.0000e+01|
|          56|  5.0510e-01|   -1.680827|    0.506876|    0.027194|           5|   -0.301207|  5.0000e+01|  5.0000e+01|  5.0000e+01|
|          57|  5.1399e-01|   -1.674705|    0.506833|    0.027285|           5|   -0.316898|  5.0000e+01|  5.0000e+01|  5.0000e+01|
|          58|  5.1556e-01|   -1.670359|    0.506814|    0.027526|           5|   -0.326496|  5.0000e+01|  5.0000e+01|  5.0000e+01|
|          59|  5.1207e-01|   -1.684737|    0.506916|    0.027591|           5|   -0.316751|  5.0000e+01|  5.0000e+01|  5.0000e+01|
|          60|  5.0886e-01|   -1.687224|    0.507076|    0.027295|           5|   -0.303984|  5.0000e+01|  5.0000e+01|  5.0000e+01|
|          61|  5.0571e-01|   -1.668021|    0.505588|    0.026824|           5|   -0.325154|  5.0000e+01|  5.0000e+01|  5.0000e+01|
|          62|  5.0262e-01|   -1.661396|    0.502742|    0.026018|           5|   -0.343838|  5.0000e+01|  5.0000e+01|  5.0000e+01|
|          63|  5.0215e-01|   -1.720298|    0.502808|    0.026100|           5|   -0.307889|  5.0000e+01|  5.0000e+01|  5.0000e+01|
|          64|  5.0886e-01|   -1.732670|    0.502944|    0.025970|           5|   -0.305246|  5.0000e+01|  5.0000e+01|  5.0000e+01|
|          65|  5.1508e-01|   -1.714313|    0.503194|    0.025705|           5|   -0.306711|  5.0000e+01|  5.0000e+01|  5.0000e+01|
|          66|  5.2265e-01|   -1.703100|    0.503081|    0.025785|           5|   -0.306998|  5.0000e+01|  5.0000e+01|  5.0000e+01|
|          67|  5.2203e-01|   -1.710939|    0.502710|    0.025974|           5|   -0.306295|  5.0000e+01|  5.0000e+01|  5.0000e+01|
|          68|  5.1861e-01|   -1.721110|    0.502784|    0.026129|           5|   -0.304018|  5.0000e+01|  5.0000e+01|  5.0000e+01|
|          69|  5.1543e-01|   -1.735837|    0.502988|    0.026101|           5|   -0.303275|  5.0000e+01|  5.0000e+01|  5.0000e+01|
|          70|  5.1232e-01|   -1.746910|    0.501677|    0.025497|           5|   -0.312034|  5.0000e+01|  5.0000e+01|  5.0000e+01|
|          71|  5.0940e-01|   -1.728228|    0.501752|    0.025411|           5|   -0.305438|  5.0000e+01|  5.0000e+01|  5.0000e+01|
|          72|  5.0651e-01|   -1.709144|    0.501557|    0.025597|           5|   -0.311183|  5.0000e+01|  5.0000e+01|  5.0000e+01|
|          73|  5.1122e-01|   -1.730596|    0.501551|    0.025609|           5|   -0.302712|  5.0000e+01|  5.0000e+01|  5.0000e+01|
|          74|  5.1657e-01|   -1.723587|    0.501432|    0.025634|           5|   -0.303917|  5.0000e+01|  5.0000e+01|  5.0000e+01|
|          75|  5.2255e-01|   -1.730516|    0.501502|    0.025552|           5|   -0.298835|  5.0000e+01|  5.0000e+01|  5.0000e+01|
|          76|  5.2495e-01|   -1.718139|    0.500797|    0.025531|           5|   -0.304440|  5.0000e+01|  5.0000e+01|  5.0000e+01|
|          77|  5.2230e-01|   -1.713635|    0.501038|    0.025317|           5|   -0.297249|  5.0000e+01|  5.0000e+01|  5.0000e+01|
|          78|  5.1980e-01|   -1.696396|    0.500386|    0.025266|           5|   -0.322210|  5.0000e+01|  5.0000e+01|  5.0000e+01|
|          79|  5.1697e-01|   -1.685852|    0.500937|    0.024921|           5|   -0.320241|  5.0000e+01|  5.0000e+01|  5.0000e+01|
|          80|  5.1486e-01|   -1.693169|    0.501177|    0.024805|           5|   -0.307340|  5.0000e+01|  5.0000e+01|  5.0000e+01|
|          81|  5.1615e-01|   -1.704947|    0.501290|    0.024735|           5|   -0.304822|  5.0000e+01|  5.0000e+01|  5.0000e+01|
|          82|  5.2098e-01|   -1.712697|    0.501130|    0.024704|           5|   -0.299963|  5.0000e+01|  5.0000e+01|  5.0000e+01|
|          83|  5.2547e-01|   -1.703796|    0.500935|    0.024693|           5|   -0.300723|  5.0000e+01|  5.0000e+01|  5.0000e+01|
|          84|  5.2964e-01|   -1.694434|    0.500982|    0.024680|           5|   -0.302946|  5.0000e+01|  5.0000e+01|  5.0000e+01|
|          85|  5.2931e-01|   -1.687109|    0.501246|    0.024666|           5|   -0.307599|  5.0000e+01|  5.0000e+01|  5.0000e+01|
|          86|  5.2627e-01|   -1.697687|    0.500922|    0.024694|           5|   -0.300127|  5.0000e+01|  5.0000e+01|  5.0000e+01|
|          87|  5.2343e-01|   -1.684032|    0.500818|    0.024722|           5|   -0.307280|  5.0000e+01|  5.0000e+01|  5.0000e+01|
|          88|  5.2065e-01|   -1.693241|    0.500770|    0.024720|           5|   -0.303020|  5.0000e+01|  5.0000e+01|  5.0000e+01|
|          89|  5.1784e-01|   -1.679513|    0.500792|    0.024759|           5|   -0.312663|  5.0000e+01|  5.0000e+01|  5.0000e+01|
|          90|  5.1521e-01|   -1.694847|    0.500538|    0.024879|           5|   -0.312500|  5.0000e+01|  5.0000e+01|  5.0000e+01|
|          91|  5.1908e-01|   -1.672885|    0.500536|    0.024914|           5|   -0.322579|  5.0000e+01|  5.0000e+01|  5.0000e+01|
|          92|  5.2415e-01|   -1.690694|    0.500116|    0.025010|           5|   -0.319112|  5.0000e+01|  5.0000e+01|  5.0000e+01|
|          93|  5.2825e-01|   -1.673510|    0.500078|    0.025040|           5|   -0.324748|  5.0000e+01|  5.0000e+01|  5.0000e+01|
|          94|  5.3196e-01|   -1.689479|    0.499631|    0.025136|           5|   -0.321055|  5.0000e+01|  5.0000e+01|  5.0000e+01|
|          95|  5.3042e-01|   -1.674691|    0.499474|    0.025173|           5|   -0.323628|  5.0000e+01|  5.0000e+01|  5.0000e+01|
|          96|  5.2777e-01|   -1.689850|    0.499071|    0.025247|           5|   -0.321424|  5.0000e+01|  5.0000e+01|  5.0000e+01|
|          97|  5.2513e-01|   -1.680283|    0.498970|    0.025192|           5|   -0.310879|  5.0000e+01|  5.0000e+01|  5.0000e+01|
|          98|  5.2257e-01|   -1.673768|    0.498790|    0.025168|           5|   -0.300676|  5.0000e+01|  5.0000e+01|  5.0000e+01|
|          99|  5.2020e-01|   -1.675174|    0.498556|    0.025172|           5|   -0.305143|  5.0000e+01|  5.0000e+01|  5.0000e+01|
|         100|  5.1798e-01|   -1.690158|    0.498307|    0.025127|           5|   -0.301108|  5.0000e+01|  5.0000e+01|  5.0000e+01|
|         101|  5.2093e-01|   -1.702109|    0.498291|    0.025306|           5|   -0.299015|  5.0000e+01|  5.0000e+01|  5.0000e+01|
|         102|  5.2521e-01|   -1.693593|    0.498074|    0.025235|           5|   -0.304878|  5.0000e+01|  5.0000e+01|  5.0000e+01|
|         103|  5.3008e-01|   -1.706585|    0.498417|    0.025383|           5|   -0.302048|  5.0000e+01|  5.0000e+01|  5.0000e+01|
|         104|  5.3252e-01|   -1.714772|    0.500839|    0.025605|           5|   -0.319731|  5.0000e+01|  5.0000e+01|  5.0000e+01|
|         105|  5.3023e-01|   -1.752262|    0.500829|    0.025591|           5|   -0.293282|  5.0000e+01|  5.0000e+01|  5.0000e+01|
|         106|  5.2816e-01|   -1.748336|    0.500819|    0.025558|           5|   -0.292352|  5.0000e+01|  5.0000e+01|  5.0000e+01|
|         107|  5.2613e-01|   -1.745000|    0.500857|    0.025519|           5|   -0.292862|  5.0000e+01|  5.0000e+01|  5.0000e+01|
|         108|  5.2414e-01|   -1.739338|    0.500737|    0.025537|           5|   -0.304584|  5.0000e+01|  5.0000e+01|  5.0000e+01|
|         109|  5.2218e-01|   -1.752530|    0.500680|    0.025544|           5|   -0.294636|  5.0000e+01|  5.0000e+01|  5.0000e+01|
|         110|  5.2427e-01|   -1.748583|    0.500827|    0.025611|           5|   -0.299689|  5.0000e+01|  5.0000e+01|  5.0000e+01|
|         111|  5.2810e-01|   -1.732493|    0.500601|    0.025577|           5|   -0.309246|  5.0000e+01|  5.0000e+01|  5.0000e+01|
|         112|  5.3196e-01|   -1.738049|    0.500440|    0.025622|           5|   -0.302395|  5.0000e+01|  5.0000e+01|  5.0000e+01|
|         113|  5.3431e-01|   -1.751208|    0.500779|    0.025616|           5|   -0.294503|  5.0000e+01|  5.0000e+01|  5.0000e+01|
|         114|  5.3227e-01|   -1.745841|    0.500431|    0.025613|           5|   -0.295645|  5.0000e+01|  5.0000e+01|  5.0000e+01|
|         115|  5.3028e-01|   -1.740122|    0.500782|    0.025600|           5|   -0.298971|  5.0000e+01|  5.0000e+01|  5.0000e+01|
|         116|  5.2830e-01|   -1.744570|    0.500542|    0.025571|           5|   -0.299082|  5.0000e+01|  5.0000e+01|  5.0000e+01|
|         117|  5.2647e-01|   -1.753259|    0.500649|    0.025603|           5|   -0.294767|  5.0000e+01|  5.0000e+01|  5.0000e+01|
|         118|  5.2469e-01|   -1.753575|    0.500774|    0.025569|           5|   -0.294874|  5.0000e+01|  5.0000e+01|  5.0000e+01|
|         119|  5.2756e-01|   -1.753894|    0.500709|    0.025544|           5|   -0.294879|  5.0000e+01|  5.0000e+01|  5.0000e+01|
|         120|  5.3138e-01|   -1.756493|    0.500774|    0.025558|           5|   -0.293980|  5.0000e+01|  5.0000e+01|  5.0000e+01|
|         121|  5.3535e-01|   -1.759029|    0.500596|    0.025599|           5|   -0.295261|  5.0000e+01|  5.0000e+01|  5.0000e+01|
|         122|  5.3704e-01|   -1.761578|    0.500536|    0.025607|           5|   -0.294446|  5.0000e+01|  5.0000e+01|  5.0000e+01|
|         123|  5.3519e-01|   -1.754201|    0.500522|    0.025610|           5|   -0.293880|  5.0000e+01|  5.0000e+01|  5.0000e+01|
|         124|  5.3330e-01|   -1.750834|    0.500866|    0.025568|           5|   -0.291679|  5.0000e+01|  5.0000e+01|  5.0000e+01|
|         125|  5.3152e-01|   -1.747463|    0.500754|    0.025594|           5|   -0.302687|  5.0000e+01|  5.0000e+01|  5.0000e+01|
|         126|  5.2968e-01|   -1.747505|    0.500746|    0.025526|           5|   -0.296975|  5.0000e+01|  5.0000e+01|  5.0000e+01|
|         127|  5.2810e-01|   -1.748881|    0.500705|    0.025623|           5|   -0.305795|  5.0000e+01|  5.0000e+01|  5.0000e+01|
|         128|  5.3122e-01|   -1.751890|    0.500334|    0.025861|           5|   -0.311025|  5.0000e+01|  5.0000e+01|  5.0000e+01|
|         129|  5.3393e-01|   -1.754041|    0.500136|    0.026011|           5|   -0.313964|  5.0000e+01|  5.0000e+01|  5.0000e+01|
|         130|  5.3726e-01|   -1.745564|    0.501023|    0.025359|           5|   -0.365684|  5.0000e+01|  5.0000e+01|  5.0000e+01|
|         131|  5.3972e-01|   -1.772327|    0.500928|    0.025491|           5|   -0.302749|  5.0000e+01|  5.0000e+01|  5.0000e+01|
|         132|  5.3958e-01|   -1.774800|    0.500804|    0.025424|           5|   -0.320848|  5.0000e+01|  5.0000e+01|  5.0000e+01|
|         133|  5.3750e-01|   -1.779908|    0.500864|    0.025465|           5|   -0.298493|  5.0000e+01|  5.0000e+01|  5.0000e+01|
|         134|  5.3553e-01|   -1.774889|    0.500824|    0.025452|           5|   -0.299997|  5.0000e+01|  5.0000e+01|  5.0000e+01|
|         135|  5.3352e-01|   -1.769221|    0.500687|    0.025507|           5|   -0.302241|  5.0000e+01|  5.0000e+01|  5.0000e+01|
|         136|  5.3152e-01|   -1.764553|    0.500643|    0.025525|           5|   -0.317746|  5.0000e+01|  5.0000e+01|  5.0000e+01|
|         137|  5.2981e-01|   -1.781674|    0.500599|    0.025525|           5|   -0.299001|  5.0000e+01|  5.0000e+01|  5.0000e+01|
|         138|  5.3285e-01|   -1.782463|    0.500610|    0.025445|           5|   -0.301390|  5.0000e+01|  5.0000e+01|  5.0000e+01|
|         139|  5.3513e-01|   -1.794386|    0.500641|    0.025495|           5|   -0.297809|  5.0000e+01|  5.0000e+01|  5.0000e+01|
|         140|  5.3806e-01|   -1.781529|    0.500625|    0.025255|           5|   -0.309647|  5.0000e+01|  5.0000e+01|  5.0000e+01|
|         141|  5.4118e-01|   -1.810928|    0.500708|    0.025181|           5|   -0.300577|  5.0000e+01|  5.0000e+01|  5.0000e+01|
|         142|  5.4061e-01|   -1.807117|    0.500598|    0.025280|           5|   -0.295485|  5.0000e+01|  5.0000e+01|  5.0000e+01|
|         143|  5.3892e-01|   -1.803662|    0.500572|    0.025274|           5|   -0.301669|  5.0000e+01|  5.0000e+01|  5.0000e+01|
|         144|  5.3709e-01|   -1.813231|    0.500593|    0.025257|           5|   -0.293712|  5.0000e+01|  5.0000e+01|  5.0000e+01|
|         145|  5.3548e-01|   -1.813817|    0.500643|    0.025235|           5|   -0.293370|  5.0000e+01|  5.0000e+01|  5.0000e+01|
|         146|  5.3480e-01|   -1.816430|    0.500965|    0.025082|           5|   -0.296553|  5.0000e+01|  5.0000e+01|  5.0000e+01|
|         147|  5.3730e-01|   -1.817526|    0.500925|    0.025153|           5|   -0.294946|  5.0000e+01|  5.0000e+01|  5.0000e+01|
|         148|  5.4057e-01|   -1.816496|    0.501000|    0.025078|           5|   -0.292790|  5.0000e+01|  5.0000e+01|  5.0000e+01|
|         149|  5.4305e-01|   -1.820975|    0.500989|    0.025129|           5|   -0.293084|  5.0000e+01|  5.0000e+01|  5.0000e+01|
|         150|  5.4570e-01|   -1.825765|    0.501109|    0.025033|           5|   -0.292755|  5.0000e+01|  5.0000e+01|  5.0000e+01|
|         151|  5.4606e-01|   -1.825289|    0.501129|    0.025093|           5|   -0.292768|  5.0000e+01|  5.0000e+01|  5.0000e+01|
|         152|  5.4425e-01|   -1.816419|    0.501144|    0.025037|           5|   -0.302750|  5.0000e+01|  5.0000e+01|  5.0000e+01|
|         153|  5.4253e-01|   -1.822436|    0.501108|    0.025137|           5|   -0.294536|  5.0000e+01|  5.0000e+01|  5.0000e+01|
|         154|  5.4087e-01|   -1.814778|    0.501229|    0.024973|           5|   -0.308001|  5.0000e+01|  5.0000e+01|  5.0000e+01|
|         155|  5.3919e-01|   -1.818973|    0.501236|    0.025047|           5|   -0.294357|  5.0000e+01|  5.0000e+01|  5.0000e+01|
|         156|  5.3952e-01|   -1.819587|    0.501400|    0.025307|           5|   -0.298474|  5.0000e+01|  5.0000e+01|  5.0000e+01|
|         157|  5.4244e-01|   -1.825262|    0.501418|    0.025321|           5|   -0.292702|  5.0000e+01|  5.0000e+01|  5.0000e+01|
|         158|  5.4513e-01|   -1.819153|    0.501616|    0.025236|           5|   -0.292866|  5.0000e+01|  5.0000e+01|  5.0000e+01|
|         159|  5.4793e-01|   -1.808255|    0.501521|    0.025397|           5|   -0.297238|  5.0000e+01|  5.0000e+01|  5.0000e+01|
|         160|  5.4999e-01|   -1.790213|    0.501626|    0.025384|           5|   -0.296012|  5.0000e+01|  5.0000e+01|  5.0000e+01|
|         161|  5.4880e-01|   -1.778632|    0.501469|    0.025630|           5|   -0.295365|  5.0000e+01|  5.0000e+01|  5.0000e+01|
|         162|  5.4760e-01|   -1.785003|    0.501531|    0.025842|           5|   -0.296286|  5.0000e+01|  5.0000e+01|  5.0000e+01|
|         163|  5.4652e-01|   -1.764496|    0.501357|    0.025962|           5|   -0.308718|  5.0000e+01|  5.0000e+01|  5.0000e+01|
|         164|  5.4955e-01|   -1.760893|    0.501418|    0.025963|           5|   -0.318635|  5.0000e+01|  5.0000e+01|  5.0000e+01|
|         165|  5.5363e-01|   -1.750719|    0.501368|    0.025942|           5|   -0.300694|  5.0000e+01|  5.0000e+01|  5.0000e+01|
|         166|  5.5746e-01|   -1.736860|    0.501465|    0.025826|           5|   -0.302003|  5.0000e+01|  5.0000e+01|  5.0000e+01|
|         167|  5.5927e-01|   -1.734316|    0.501454|    0.025779|           5|   -0.293888|  5.0000e+01|  5.0000e+01|  5.0000e+01|
|         168|  5.5798e-01|   -1.717236|    0.501433|    0.025658|           5|   -0.295748|  5.0000e+01|  5.0000e+01|  5.0000e+01|
|         169|  5.5662e-01|   -1.710404|    0.501460|    0.025592|           5|   -0.297831|  5.0000e+01|  5.0000e+01|  5.0000e+01|
|         170|  5.5541e-01|   -1.704206|    0.501493|    0.025553|           5|   -0.298766|  5.0000e+01|  5.0000e+01|  5.0000e+01|
|         171|  5.5416e-01|   -1.703183|    0.501530|    0.025558|           5|   -0.301914|  5.0000e+01|  5.0000e+01|  5.0000e+01|
|         172|  5.5634e-01|   -1.710805|    0.501653|    0.025507|           5|   -0.294246|  5.0000e+01|  5.0000e+01|  5.0000e+01|
|         173|  5.5961e-01|   -1.699392|    0.501488|    0.025569|           5|   -0.297698|  5.0000e+01|  5.0000e+01|  5.0000e+01|
|         174|  5.6256e-01|   -1.701295|    0.501639|    0.025658|           5|   -0.295838|  5.0000e+01|  5.0000e+01|  5.0000e+01|
|         175|  5.6343e-01|   -1.696406|    0.501562|    0.025507|           5|   -0.301823|  5.0000e+01|  5.0000e+01|  5.0000e+01|
|         176|  5.6219e-01|   -1.723772|    0.501545|    0.025527|           5|   -0.306677|  5.0000e+01|  5.0000e+01|  5.0000e+01|
|         177|  5.6093e-01|   -1.727684|    0.501572|    0.025447|           5|   -0.297136|  5.0000e+01|  5.0000e+01|  5.0000e+01|
|         178|  5.5967e-01|   -1.715814|    0.501424|    0.025369|           5|   -0.299306|  5.0000e+01|  5.0000e+01|  5.0000e+01|
|         179|  5.5854e-01|   -1.717681|    0.501459|    0.025470|           5|   -0.302752|  5.0000e+01|  5.0000e+01|  5.0000e+01|
|         180|  5.5751e-01|   -1.736578|    0.501404|    0.025502|           5|   -0.296861|  5.0000e+01|  5.0000e+01|  5.0000e+01|
|         181|  5.6068e-01|   -1.737994|    0.501416|    0.025632|           5|   -0.299644|  5.0000e+01|  5.0000e+01|  5.0000e+01|
|         182|  5.6302e-01|   -1.740160|    0.501425|    0.025619|           5|   -0.298522|  5.0000e+01|  5.0000e+01|  5.0000e+01|
|         183|  5.6505e-01|   -1.748098|    0.501430|    0.025618|           5|   -0.292842|  5.0000e+01|  5.0000e+01|  5.0000e+01|
|         184|  5.6394e-01|   -1.746776|    0.501436|    0.025738|           5|   -0.294427|  5.0000e+01|  5.0000e+01|  5.0000e+01|
|         185|  5.6273e-01|   -1.763917|    0.501098|    0.025834|           5|   -0.299016|  5.0000e+01|  5.0000e+01|  5.0000e+01|
|         186|  5.6154e-01|   -1.751182|    0.501371|    0.025871|           5|   -0.297161|  5.0000e+01|  5.0000e+01|  5.0000e+01|
|         187|  5.6051e-01|   -1.734316|    0.501538|    0.025972|           5|   -0.298103|  5.0000e+01|  5.0000e+01|  5.0000e+01|
|         188|  5.6318e-01|   -1.723733|    0.501592|    0.026156|           5|   -0.303806|  5.0000e+01|  5.0000e+01|  5.0000e+01|
|         189|  5.6686e-01|   -1.728400|    0.501979|    0.026201|           5|   -0.336135|  5.0000e+01|  5.0000e+01|  5.0000e+01|
|         190|  5.6813e-01|   -1.780972|    0.501546|    0.026340|           5|   -0.310861|  5.0000e+01|  5.0000e+01|  5.0000e+01|
|         191|  5.6689e-01|   -1.706314|    0.501679|    0.026289|           5|   -0.328805|  5.0000e+01|  5.0000e+01|  5.0000e+01|
|         192|  5.6578e-01|   -1.668493|    0.501754|    0.026498|           5|   -0.302447|  5.0000e+01|  5.0000e+01|  5.0000e+01|
|         193|  5.6455e-01|   -1.690524|    0.501812|    0.026464|           5|   -0.324643|  5.0000e+01|  5.0000e+01|  5.0000e+01|
|         194|  5.6347e-01|   -1.681163|    0.502249|    0.026585|           5|   -0.312754|  5.0000e+01|  5.0000e+01|  5.0000e+01|
|         195|  5.6445e-01|   -1.668732|    0.502086|    0.026743|           5|   -0.301934|  5.0000e+01|  5.0000e+01|  5.0000e+01|
|         196|  5.6790e-01|   -1.702872|    0.502103|    0.026716|           5|   -0.316684|  5.0000e+01|  5.0000e+01|  5.0000e+01|
|         197|  5.7008e-01|   -1.693965|    0.501683|    0.027004|           5|   -0.303398|  5.0000e+01|  5.0000e+01|  5.0000e+01|
|         198|  5.6897e-01|   -1.675651|    0.501695|    0.026910|           5|   -0.358314|  5.0000e+01|  5.0000e+01|  5.0000e+01|
|         199|  5.6761e-01|   -1.732777|    0.501536|    0.026884|           5|   -0.297604|  5.0000e+01|  5.0000e+01|  5.0000e+01|
|         200|  5.6625e-01|   -1.732810|    0.501563|    0.026886|           5|   -0.295336|  5.0000e+01|  5.0000e+01|  5.0000e+01|
|         201|  5.6492e-01|   -1.734186|    0.501391|    0.026777|           5|   -0.293297|  5.0000e+01|  5.0000e+01|  5.0000e+01|
|         202|  5.6363e-01|   -1.733279|    0.501608|    0.026798|           5|   -0.290844|  5.0000e+01|  5.0000e+01|  5.0000e+01|
|         203|  5.6416e-01|   -1.775887|    0.501553|    0.026847|           5|   -0.291757|  5.0000e+01|  5.0000e+01|  5.0000e+01|
|         204|  5.6627e-01|   -1.769853|    0.501585|    0.027028|           5|   -0.302284|  5.0000e+01|  5.0000e+01|  5.0000e+01|
|         205|  5.6835e-01|   -1.760969|    0.501559|    0.026873|           5|   -0.327846|  5.0000e+01|  5.0000e+01|  5.0000e+01|
|         206|  5.6934e-01|   -1.758416|    0.501605|    0.026827|           5|   -0.296886|  5.0000e+01|  5.0000e+01|  5.0000e+01|
|         207|  5.6809e-01|   -1.801591|    0.501678|    0.026812|           5|   -0.293699|  5.0000e+01|  5.0000e+01|  5.0000e+01|
|         208|  5.6686e-01|   -1.804295|    0.501937|    0.026677|           5|   -0.299825|  5.0000e+01|  5.0000e+01|  5.0000e+01|
|         209|  5.6556e-01|   -1.690575|    0.502385|    0.026703|           5|   -0.312475|  5.0000e+01|  5.0000e+01|  5.0000e+01|
|         210|  5.6432e-01|   -1.810677|    0.502383|    0.026684|           5|   -0.292190|  5.0000e+01|  5.0000e+01|  5.0000e+01|
|         211|  5.6311e-01|   -1.819605|    0.502349|    0.026694|           5|   -0.294364|  5.0000e+01|  5.0000e+01|  5.0000e+01|
|         212|  5.6390e-01|   -1.813162|    0.502410|    0.026695|           5|   -0.291703|  5.0000e+01|  5.0000e+01|  5.0000e+01|
|         213|  5.6559e-01|   -1.829362|    0.501960|    0.026768|           5|   -0.295872|  5.0000e+01|  5.0000e+01|  5.0000e+01|
|         214|  5.6745e-01|   -1.863526|    0.501945|    0.026758|           5|   -0.287612|  5.0000e+01|  5.0000e+01|  5.0000e+01|
|         215|  5.6922e-01|   -1.861609|    0.501926|    0.026753|           5|   -0.289377|  5.0000e+01|  5.0000e+01|  5.0000e+01|
|         216|  5.6836e-01|   -1.843183|    0.501884|    0.026827|           5|   -0.289112|  5.0000e+01|  5.0000e+01|  5.0000e+01|
|         217|  5.6712e-01|   -1.859381|    0.501898|    0.026832|           5|   -0.286956|  5.0000e+01|  5.0000e+01|  5.0000e+01|
|         218|  5.6584e-01|   -1.856718|    0.501818|    0.026868|           5|   -0.287513|  5.0000e+01|  5.0000e+01|  5.0000e+01|
|         219|  5.6462e-01|   -1.861964|    0.501822|    0.026876|           5|   -0.287195|  5.0000e+01|  5.0000e+01|  5.0000e+01|
|         220|  5.6342e-01|   -1.866667|    0.501797|    0.026887|           5|   -0.287243|  5.0000e+01|  5.0000e+01|  5.0000e+01|
|         221|  5.6469e-01|   -1.864750|    0.501763|    0.026891|           5|   -0.288771|  5.0000e+01|  5.0000e+01|  5.0000e+01|
|         222|  5.6695e-01|   -1.847189|    0.501463|    0.026952|           5|   -0.299680|  5.0000e+01|  5.0000e+01|  5.0000e+01|
|         223|  5.6871e-01|   -1.849649|    0.501442|    0.026973|           5|   -0.288364|  5.0000e+01|  5.0000e+01|  5.0000e+01|
|         224|  5.6920e-01|   -1.869477|    0.501417|    0.026976|           5|   -0.287336|  5.0000e+01|  5.0000e+01|  5.0000e+01|
|         225|  5.6801e-01|   -1.862911|    0.501417|    0.026964|           5|   -0.286666|  5.0000e+01|  5.0000e+01|  5.0000e+01|
|         226|  5.6686e-01|   -1.860940|    0.501417|    0.026971|           5|   -0.286875|  5.0000e+01|  5.0000e+01|  5.0000e+01|
|         227|  5.6570e-01|   -1.871559|    0.501407|    0.026967|           5|   -0.287585|  5.0000e+01|  5.0000e+01|  5.0000e+01|
|         228|  5.6456e-01|   -1.862277|    0.501412|    0.026968|           5|   -0.286722|  5.0000e+01|  5.0000e+01|  5.0000e+01|
|         229|  5.6405e-01|   -1.870430|    0.501405|    0.026964|           5|   -0.287209|  5.0000e+01|  5.0000e+01|  5.0000e+01|
|         230|  5.6574e-01|   -1.862175|    0.501415|    0.026963|           5|   -0.286719|  5.0000e+01|  5.0000e+01|  5.0000e+01|
|         231|  5.6747e-01|   -1.865594|    0.501409|    0.026959|           5|   -0.286835|  5.0000e+01|  5.0000e+01|  5.0000e+01|
|         232|  5.6907e-01|   -1.861871|    0.501412|    0.026954|           5|   -0.286647|  5.0000e+01|  5.0000e+01|  5.0000e+01|
|         233|  5.6940e-01|   -1.862065|    0.501408|    0.026965|           5|   -0.287054|  5.0000e+01|  5.0000e+01|  5.0000e+01|
|         234|  5.6828e-01|   -1.861316|    0.501369|    0.026973|           5|   -0.291752|  5.0000e+01|  5.0000e+01|  5.0000e+01|
|         235|  5.6717e-01|   -1.859878|    0.501363|    0.026979|           5|   -0.286929|  5.0000e+01|  5.0000e+01|  5.0000e+01|
|         236|  5.6607e-01|   -1.858907|    0.501316|    0.026989|           5|   -0.291814|  5.0000e+01|  5.0000e+01|  5.0000e+01|
|         237|  5.6496e-01|   -1.857870|    0.501326|    0.026979|           5|   -0.287217|  5.0000e+01|  5.0000e+01|  5.0000e+01|
|         238|  5.6422e-01|   -1.861716|    0.501296|    0.026984|           5|   -0.290471|  5.0000e+01|  5.0000e+01|  5.0000e+01|
|         239|  5.6602e-01|   -1.858048|    0.501360|    0.026952|           5|   -0.287955|  5.0000e+01|  5.0000e+01|  5.0000e+01|
|         240|  5.6761e-01|   -1.757574|    0.501341|    0.026960|           5|   -0.342307|  5.0000e+01|  5.0000e+01|  5.0000e+01|
|         241|  5.6919e-01|   -1.860434|    0.501363|    0.026960|           5|   -0.287435|  5.0000e+01|  5.0000e+01|  5.0000e+01|
|         242|  5.6970e-01|   -1.863170|    0.501369|    0.026953|           5|   -0.286664|  5.0000e+01|  5.0000e+01|  5.0000e+01|
|         243|  5.6855e-01|   -1.860445|    0.501377|    0.026949|           5|   -0.286715|  5.0000e+01|  5.0000e+01|  5.0000e+01|
|         244|  5.6744e-01|   -1.859931|    0.501391|    0.026947|           5|   -0.286918|  5.0000e+01|  5.0000e+01|  5.0000e+01|
|         245|  5.6629e-01|   -1.857075|    0.501398|    0.026943|           5|   -0.286851|  5.0000e+01|  5.0000e+01|  5.0000e+01|
|         246|  5.6518e-01|   -1.853808|    0.501413|    0.026945|           5|   -0.286845|  5.0000e+01|  5.0000e+01|  5.0000e+01|
|         247|  5.6404e-01|   -1.854124|    0.501422|    0.026942|           5|   -0.286816|  5.0000e+01|  5.0000e+01|  5.0000e+01|
|         248|  5.6517e-01|   -1.853059|    0.501418|    0.026942|           5|   -0.286809|  5.0000e+01|  5.0000e+01|  5.0000e+01|
|         249|  5.6664e-01|   -1.856843|    0.501421|    0.026934|           5|   -0.286877|  5.0000e+01|  5.0000e+01|  5.0000e+01|
|         250|  5.6812e-01|   -1.852335|    0.501428|    0.026933|           5|   -0.287082|  5.0000e+01|  5.0000e+01|  5.0000e+01|
|         251|  5.6883e-01|   -1.862077|    0.501446|    0.026931|           5|   -0.286973|  5.0000e+01|  5.0000e+01|  5.0000e+01|
|         252|  5.6773e-01|   -1.858749|    0.501443|    0.026930|           5|   -0.286714|  5.0000e+01|  5.0000e+01|  5.0000e+01|
|         253|  5.6661e-01|   -1.860443|    0.501461|    0.026934|           5|   -0.286894|  5.0000e+01|  5.0000e+01|  5.0000e+01|
|         254|  5.6543e-01|   -1.854015|    0.501404|    0.026953|           5|   -0.287057|  5.0000e+01|  5.0000e+01|  5.0000e+01|
|         255|  5.6431e-01|   -1.853455|    0.501399|    0.026958|           5|   -0.287283|  5.0000e+01|  5.0000e+01|  5.0000e+01|
|         256|  5.6326e-01|   -1.856910|    0.501470|    0.026923|           5|   -0.287309|  5.0000e+01|  5.0000e+01|  5.0000e+01|
|         257|  5.6365e-01|   -1.838985|    0.501474|    0.026903|           5|   -0.294146|  5.0000e+01|  5.0000e+01|  5.0000e+01|
|         258|  5.6515e-01|   -1.856838|    0.501499|    0.026897|           5|   -0.287140|  5.0000e+01|  5.0000e+01|  5.0000e+01|
|         259|  5.6655e-01|   -1.854244|    0.501493|    0.026896|           5|   -0.287130|  5.0000e+01|  5.0000e+01|  5.0000e+01|
|         260|  5.6801e-01|   -1.853658|    0.501514|    0.026899|           5|   -0.286936|  5.0000e+01|  5.0000e+01|  5.0000e+01|
|         261|  5.6834e-01|   -1.849868|    0.501532|    0.026906|           5|   -0.287095|  5.0000e+01|  5.0000e+01|  5.0000e+01|
|         262|  5.6719e-01|   -1.848706|    0.501486|    0.026907|           5|   -0.287173|  5.0000e+01|  5.0000e+01|  5.0000e+01|
|         263|  5.6609e-01|   -1.846030|    0.501456|    0.026914|           5|   -0.287975|  5.0000e+01|  5.0000e+01|  5.0000e+01|
|         264|  5.6505e-01|   -1.858729|    0.501472|    0.026925|           5|   -0.287099|  5.0000e+01|  5.0000e+01|  5.0000e+01|
|         265|  5.6396e-01|   -1.856384|    0.501383|    0.026975|           5|   -0.287922|  5.0000e+01|  5.0000e+01|  5.0000e+01|
|         266|  5.6287e-01|   -1.859532|    0.501336|    0.026975|           5|   -0.286949|  5.0000e+01|  5.0000e+01|  5.0000e+01|
|         267|  5.6255e-01|   -1.862174|    0.501310|    0.026974|           5|   -0.286770|  5.0000e+01|  5.0000e+01|  5.0000e+01|
|         268|  5.6394e-01|   -1.861277|    0.501287|    0.026982|           5|   -0.287120|  5.0000e+01|  5.0000e+01|  5.0000e+01|
|         269|  5.6516e-01|   -1.857286|    0.501206|    0.026952|           5|   -0.288918|  5.0000e+01|  5.0000e+01|  5.0000e+01|
|         270|  5.6637e-01|   -1.718395|    0.501197|    0.026933|           5|   -0.376441|  5.0000e+01|  5.0000e+01|  5.0000e+01|
|         271|  5.6706e-01|   -1.863436|    0.501237|    0.026897|           5|   -0.289583|  5.0000e+01|  5.0000e+01|  5.0000e+01|
|         272|  5.6597e-01|   -1.850152|    0.501212|    0.026925|           5|   -0.287386|  5.0000e+01|  5.0000e+01|  5.0000e+01|
|         273|  5.6486e-01|   -1.853004|    0.501152|    0.026925|           5|   -0.287451|  5.0000e+01|  5.0000e+01|  5.0000e+01|
|         274|  5.6380e-01|   -1.852999|    0.501175|    0.026915|           5|   -0.287373|  5.0000e+01|  5.0000e+01|  5.0000e+01|
|         275|  5.6279e-01|   -1.860408|    0.501138|    0.026917|           5|   -0.288427|  5.0000e+01|  5.0000e+01|  5.0000e+01|
|         276|  5.6173e-01|   -1.846495|    0.501081|    0.026916|           5|   -0.288014|  5.0000e+01|  5.0000e+01|  5.0000e+01|
|         277|  5.6135e-01|   -1.861670|    0.501053|    0.026918|           5|   -0.286967|  5.0000e+01|  5.0000e+01|  5.0000e+01|
|         278|  5.6267e-01|   -1.852234|    0.501029|    0.026918|           5|   -0.287582|  5.0000e+01|  5.0000e+01|  5.0000e+01|
|         279|  5.6401e-01|   -1.859877|    0.501015|    0.026917|           5|   -0.287326|  5.0000e+01|  5.0000e+01|  5.0000e+01|
|         280|  5.6540e-01|   -1.860093|    0.500987|    0.026921|           5|   -0.288234|  5.0000e+01|  5.0000e+01|  5.0000e+01|
|         281|  5.6610e-01|   -1.846389|    0.500965|    0.026937|           5|   -0.287979|  5.0000e+01|  5.0000e+01|  5.0000e+01|
|         282|  5.6513e-01|   -1.866723|    0.500976|    0.026926|           5|   -0.287365|  5.0000e+01|  5.0000e+01|  5.0000e+01|
|         283|  5.6417e-01|   -1.858698|    0.500965|    0.026920|           5|   -0.287219|  5.0000e+01|  5.0000e+01|  5.0000e+01|
|         284|  5.6323e-01|   -1.858269|    0.500937|    0.026918|           5|   -0.287373|  5.0000e+01|  5.0000e+01|  5.0000e+01|
|         285|  5.6229e-01|   -1.850552|    0.500922|    0.026925|           5|   -0.287582|  5.0000e+01|  5.0000e+01|  5.0000e+01|
|         286|  5.6272e-01|   -1.862302|    0.500907|    0.026896|           5|   -0.312520|  5.0000e+01|  5.0000e+01|  5.0000e+01|
|         287|  5.6405e-01|   -1.833750|    0.500712|    0.026956|           5|   -0.297949|  5.0000e+01|  5.0000e+01|  5.0000e+01|
|         288|  5.6539e-01|   -1.880295|    0.500637|    0.026985|           5|   -0.291476|  5.0000e+01|  5.0000e+01|  5.0000e+01|
|         289|  5.6658e-01|   -1.861965|    0.500647|    0.026996|           5|   -0.303478|  5.0000e+01|  5.0000e+01|  5.0000e+01|
|         290|  5.6567e-01|   -1.893198|    0.500623|    0.027002|           5|   -0.286629|  5.0000e+01|  5.0000e+01|  5.0000e+01|
|         291|  5.6470e-01|   -1.889478|    0.501030|    0.026900|           5|   -0.287958|  5.0000e+01|  5.0000e+01|  5.0000e+01|
|         292|  5.6373e-01|   -1.744422|    0.501064|    0.026877|           5|   -0.316626|  5.0000e+01|  5.0000e+01|  5.0000e+01|
|         293|  5.6280e-01|   -1.746945|    0.500731|    0.026911|           5|   -0.300939|  5.0000e+01|  5.0000e+01|  5.0000e+01|
|         294|  5.6193e-01|   -1.741468|    0.501098|    0.026943|           5|   -0.298740|  5.0000e+01|  5.0000e+01|  5.0000e+01|
|         295|  5.6283e-01|   -1.753233|    0.501127|    0.026900|           5|   -0.294074|  5.0000e+01|  5.0000e+01|  5.0000e+01|
|         296|  5.6421e-01|   -1.739401|    0.501163|    0.026879|           5|   -0.292462|  5.0000e+01|  5.0000e+01|  5.0000e+01|
|         297|  5.6560e-01|   -1.736374|    0.501380|    0.026848|           5|   -0.292656|  5.0000e+01|  5.0000e+01|  5.0000e+01|
|         298|  5.6697e-01|   -1.738706|    0.501375|    0.026827|           5|   -0.292857|  5.0000e+01|  5.0000e+01|  5.0000e+01|
|         299|  5.6614e-01|   -1.730782|    0.500689|    0.026974|           5|   -0.305249|  5.0000e+01|  5.0000e+01|  5.0000e+01|
|         300|  5.6529e-01|   -1.729466|    0.500332|    0.027101|           5|   -0.305151|  5.0000e+01|  5.0000e+01|  5.0000e+01|
|         301|  5.6442e-01|   -1.747140|    0.500012|    0.027160|           5|   -0.293296|  5.0000e+01|  5.0000e+01|  5.0000e+01|
|         302|  5.6358e-01|   -1.753465|    0.500296|    0.027188|           5|   -0.293085|  5.0000e+01|  5.0000e+01|  5.0000e+01|
|         303|  5.6298e-01|   -1.834730|    0.499336|    0.027286|           5|   -0.309782|  5.0000e+01|  5.0000e+01|  5.0000e+01|
|         304|  5.6462e-01|   -1.819636|    0.499159|    0.027284|           5|   -0.289931|  5.0000e+01|  5.0000e+01|  5.0000e+01|
|         305|  5.6617e-01|   -1.847107|    0.498667|    0.027323|           5|   -0.292188|  5.0000e+01|  5.0000e+01|  5.0000e+01|
|         306|  5.6785e-01|   -1.834344|    0.498851|    0.027318|           5|   -0.290575|  5.0000e+01|  5.0000e+01|  5.0000e+01|
|         307|  5.6809e-01|   -1.845371|    0.499038|    0.027319|           5|   -0.297456|  5.0000e+01|  5.0000e+01|  5.0000e+01|
|         308|  5.6746e-01|   -1.823389|    0.499135|    0.027316|           5|   -0.289106|  5.0000e+01|  5.0000e+01|  5.0000e+01|
|         309|  5.6686e-01|   -1.829371|    0.499148|    0.027314|           5|   -0.290495|  5.0000e+01|  5.0000e+01|  5.0000e+01|
|         310|  5.6627e-01|   -1.823202|    0.499206|    0.027310|           5|   -0.295139|  5.0000e+01|  5.0000e+01|  5.0000e+01|
|         311|  5.6858e-01|   -1.833774|    0.499204|    0.027307|           5|   -0.289126|  5.0000e+01|  5.0000e+01|  5.0000e+01|
|         312|  5.7074e-01|   -1.836380|    0.499216|    0.027303|           5|   -0.288295|  5.0000e+01|  5.0000e+01|  5.0000e+01|
|         313|  5.7072e-01|   -1.835694|    0.499188|    0.027304|           5|   -0.288475|  5.0000e+01|  5.0000e+01|  5.0000e+01|
|         314|  5.7012e-01|   -1.836100|    0.499209|    0.027299|           5|   -0.288893|  5.0000e+01|  5.0000e+01|  5.0000e+01|
|         315|  5.6960e-01|   -1.834859|    0.499440|    0.027293|           5|   -0.291513|  5.0000e+01|  5.0000e+01|  5.0000e+01|
|         316|  5.6902e-01|   -1.834736|    0.499373|    0.027305|           5|   -0.288767|  5.0000e+01|  5.0000e+01|  5.0000e+01|
|         317|  5.6850e-01|   -1.834485|    0.499429|    0.027298|           5|   -0.288639|  5.0000e+01|  5.0000e+01|  5.0000e+01|
|         318|  5.7040e-01|   -1.834470|    0.499405|    0.027303|           5|   -0.288442|  5.0000e+01|  5.0000e+01|  5.0000e+01|
|         319|  5.7229e-01|   -1.834838|    0.499410|    0.027296|           5|   -0.288282|  5.0000e+01|  5.0000e+01|  5.0000e+01|
|         320|  5.7423e-01|   -1.835459|    0.499528|    0.027294|           5|   -0.288461|  5.0000e+01|  5.0000e+01|  5.0000e+01|
|         321|  5.7384e-01|   -1.836073|    0.499578|    0.027293|           5|   -0.288101|  5.0000e+01|  5.0000e+01|  5.0000e+01|
|         322|  5.7320e-01|   -1.837482|    0.499547|    0.027299|           5|   -0.286659|  5.0000e+01|  5.0000e+01|  5.0000e+01|
|         323|  5.7250e-01|   -1.836133|    0.499589|    0.027297|           5|   -0.286926|  5.0000e+01|  5.0000e+01|  5.0000e+01|
|         324|  5.7184e-01|   -1.837364|    0.499470|    0.027292|           5|   -0.287399|  5.0000e+01|  5.0000e+01|  5.0000e+01|
|         325|  5.7343e-01|   -1.834603|    0.499487|    0.027281|           5|   -0.286901|  5.0000e+01|  5.0000e+01|  5.0000e+01|
|         326|  5.7538e-01|   -1.831634|    0.499662|    0.027255|           5|   -0.289912|  5.0000e+01|  5.0000e+01|  5.0000e+01|
|         327|  5.7710e-01|   -1.833754|    0.499720|    0.027247|           5|   -0.288736|  5.0000e+01|  5.0000e+01|  5.0000e+01|
|         328|  5.7632e-01|   -1.833821|    0.499618|    0.027264|           5|   -0.289094|  5.0000e+01|  5.0000e+01|  5.0000e+01|
|         329|  5.7553e-01|   -1.833283|    0.499781|    0.027244|           5|   -0.288725|  5.0000e+01|  5.0000e+01|  5.0000e+01|
|         330|  5.7479e-01|   -1.833162|    0.499578|    0.027270|           5|   -0.290183|  5.0000e+01|  5.0000e+01|  5.0000e+01|
|         331|  5.7399e-01|   -1.831509|    0.499618|    0.027265|           5|   -0.288180|  5.0000e+01|  5.0000e+01|  5.0000e+01|
|         332|  5.7443e-01|   -1.833079|    0.499659|    0.027259|           5|   -0.288508|  5.0000e+01|  5.0000e+01|  5.0000e+01|
|         333|  5.7618e-01|   -1.832024|    0.499548|    0.027260|           5|   -0.289380|  5.0000e+01|  5.0000e+01|  5.0000e+01|
|         334|  5.7814e-01|   -1.830015|    0.499677|    0.027235|           5|   -0.290317|  5.0000e+01|  5.0000e+01|  5.0000e+01|
|         335|  5.7787e-01|   -1.830582|    0.499729|    0.027233|           5|   -0.289562|  5.0000e+01|  5.0000e+01|  5.0000e+01|
|         336|  5.7716e-01|   -1.830493|    0.499797|    0.027219|           5|   -0.289757|  5.0000e+01|  5.0000e+01|  5.0000e+01|
|         337|  5.7662e-01|   -1.829837|    0.499743|    0.027236|           5|   -0.290276|  5.0000e+01|  5.0000e+01|  5.0000e+01|
|         338|  5.7598e-01|   -1.829949|    0.499819|    0.027223|           5|   -0.289738|  5.0000e+01|  5.0000e+01|  5.0000e+01|
|         339|  5.7691e-01|   -1.829445|    0.499845|    0.027220|           5|   -0.289548|  5.0000e+01|  5.0000e+01|  5.0000e+01|
|         340|  5.7886e-01|   -1.829196|    0.499609|    0.027255|           5|   -0.297374|  5.0000e+01|  5.0000e+01|  5.0000e+01|
|         341|  5.8082e-01|   -1.848946|    0.499673|    0.027254|           5|   -0.292609|  5.0000e+01|  5.0000e+01|  5.0000e+01|
|         342|  5.8049e-01|   -1.844805|    0.499694|    0.027247|           5|   -0.289022|  5.0000e+01|  5.0000e+01|  5.0000e+01|
|         343|  5.7998e-01|   -1.857511|    0.499664|    0.027249|           5|   -0.289252|  5.0000e+01|  5.0000e+01|  5.0000e+01|
|         344|  5.7947e-01|   -1.855453|    0.499614|    0.027250|           5|   -0.289935|  5.0000e+01|  5.0000e+01|  5.0000e+01|
|         345|  5.7884e-01|   -1.853990|    0.499614|    0.027248|           5|   -0.288385|  5.0000e+01|  5.0000e+01|  5.0000e+01|
|         346|  5.7994e-01|   -1.856153|    0.499621|    0.027246|           5|   -0.288648|  5.0000e+01|  5.0000e+01|  5.0000e+01|
|         347|  5.8164e-01|   -1.853771|    0.499558|    0.027243|           5|   -0.289242|  5.0000e+01|  5.0000e+01|  5.0000e+01|
|         348|  5.8333e-01|   -1.852438|    0.499537|    0.027242|           5|   -0.288522|  5.0000e+01|  5.0000e+01|  5.0000e+01|
|         349|  5.8320e-01|   -1.853406|    0.499545|    0.027237|           5|   -0.288661|  5.0000e+01|  5.0000e+01|  5.0000e+01|
|         350|  5.8242e-01|   -1.852434|    0.499571|    0.027233|           5|   -0.288266|  5.0000e+01|  5.0000e+01|  5.0000e+01|
|         351|  5.8169e-01|   -1.853367|    0.499607|    0.027229|           5|   -0.288463|  5.0000e+01|  5.0000e+01|  5.0000e+01|
|         352|  5.8106e-01|   -1.852769|    0.499603|    0.027226|           5|   -0.288143|  5.0000e+01|  5.0000e+01|  5.0000e+01|
|         353|  5.8026e-01|   -1.853329|    0.499645|    0.027223|           5|   -0.288617|  5.0000e+01|  5.0000e+01|  5.0000e+01|
|         354|  5.8092e-01|   -1.851766|    0.499662|    0.027221|           5|   -0.288158|  5.0000e+01|  5.0000e+01|  5.0000e+01|
|         355|  5.8190e-01|   -1.849645|    0.499660|    0.027223|           5|   -0.287834|  5.0000e+01|  5.0000e+01|  5.0000e+01|
|         356|  5.8336e-01|   -1.853908|    0.499726|    0.027222|           5|   -0.288753|  5.0000e+01|  5.0000e+01|  5.0000e+01|
|         357|  5.8260e-01|   -1.849774|    0.499670|    0.027233|           5|   -0.292700|  5.0000e+01|  5.0000e+01|  5.0000e+01|
|         358|  5.8180e-01|   -1.836336|    0.499609|    0.027232|           5|   -0.290071|  5.0000e+01|  5.0000e+01|  5.0000e+01|
|         359|  5.8100e-01|   -1.836728|    0.499757|    0.027230|           5|   -0.290064|  5.0000e+01|  5.0000e+01|  5.0000e+01|
|         360|  5.8021e-01|   -1.836122|    0.499681|    0.027227|           5|   -0.290314|  5.0000e+01|  5.0000e+01|  5.0000e+01|
|         361|  5.7942e-01|   -1.840010|    0.499700|    0.027218|           5|   -0.290873|  5.0000e+01|  5.0000e+01|  5.0000e+01|
|         362|  5.7947e-01|   -1.839186|    0.499536|    0.027215|           5|   -0.292577|  5.0000e+01|  5.0000e+01|  5.0000e+01|
|         363|  5.8071e-01|   -1.832106|    0.499521|    0.027210|           5|   -0.290605|  5.0000e+01|  5.0000e+01|  5.0000e+01|
|         364|  5.8198e-01|   -1.834537|    0.499469|    0.027209|           5|   -0.291569|  5.0000e+01|  5.0000e+01|  5.0000e+01|
|         365|  5.8220e-01|   -1.827660|    0.499472|    0.027202|           5|   -0.289544|  5.0000e+01|  5.0000e+01|  5.0000e+01|
|         366|  5.8144e-01|   -1.831116|    0.499565|    0.027202|           5|   -0.291730|  5.0000e+01|  5.0000e+01|  5.0000e+01|
|         367|  5.8069e-01|   -1.821883|    0.499574|    0.027193|           5|   -0.290173|  5.0000e+01|  5.0000e+01|  5.0000e+01|
|         368|  5.7994e-01|   -1.824779|    0.499554|    0.027191|           5|   -0.291042|  5.0000e+01|  5.0000e+01|  5.0000e+01|
|         369|  5.7923e-01|   -1.819352|    0.499543|    0.027199|           5|   -0.289805|  5.0000e+01|  5.0000e+01|  5.0000e+01|
|         370|  5.7930e-01|   -1.827389|    0.499418|    0.027198|           5|   -0.290205|  5.0000e+01|  5.0000e+01|  5.0000e+01|
|         371|  5.8018e-01|   -1.824096|    0.499445|    0.027188|           5|   -0.290236|  5.0000e+01|  5.0000e+01|  5.0000e+01|
|         372|  5.8105e-01|   -1.828484|    0.499437|    0.027175|           5|   -0.289604|  5.0000e+01|  5.0000e+01|  5.0000e+01|
|         373|  5.8100e-01|   -1.831353|    0.499429|    0.027168|           5|   -0.289766|  5.0000e+01|  5.0000e+01|  5.0000e+01|
|         374|  5.8023e-01|   -1.835930|    0.499351|    0.027181|           5|   -0.290415|  5.0000e+01|  5.0000e+01|  5.0000e+01|
|         375|  5.7942e-01|   -1.843228|    0.499528|    0.027174|           5|   -0.289076|  5.0000e+01|  5.0000e+01|  5.0000e+01|
|         376|  5.7860e-01|   -1.836038|    0.499604|    0.027202|           5|   -0.291195|  5.0000e+01|  5.0000e+01|  5.0000e+01|
|         377|  5.7785e-01|   -1.847268|    0.499591|    0.027196|           5|   -0.289142|  5.0000e+01|  5.0000e+01|  5.0000e+01|
|         378|  5.7709e-01|   -1.847503|    0.499587|    0.027189|           5|   -0.288336|  5.0000e+01|  5.0000e+01|  5.0000e+01|
|         379|  5.7714e-01|   -1.846812|    0.499596|    0.027181|           5|   -0.288407|  5.0000e+01|  5.0000e+01|  5.0000e+01|
|         380|  5.7800e-01|   -1.845747|    0.499642|    0.027174|           5|   -0.288746|  5.0000e+01|  5.0000e+01|  5.0000e+01|
|         381|  5.7885e-01|   -1.844839|    0.499657|    0.027167|           5|   -0.288621|  5.0000e+01|  5.0000e+01|  5.0000e+01|
|         382|  5.7943e-01|   -1.843243|    0.499724|    0.027160|           5|   -0.288736|  5.0000e+01|  5.0000e+01|  5.0000e+01|
|         383|  5.7867e-01|   -1.842285|    0.499756|    0.027154|           5|   -0.288600|  5.0000e+01|  5.0000e+01|  5.0000e+01|
|         384|  5.7793e-01|   -1.840465|    0.499840|    0.027148|           5|   -0.288780|  5.0000e+01|  5.0000e+01|  5.0000e+01|
|         385|  5.7720e-01|   -1.839085|    0.499905|    0.027143|           5|   -0.289074|  5.0000e+01|  5.0000e+01|  5.0000e+01|
|         386|  5.7647e-01|   -1.837657|    0.499897|    0.027137|           5|   -0.288602|  5.0000e+01|  5.0000e+01|  5.0000e+01|
|         387|  5.7574e-01|   -1.835181|    0.499925|    0.027130|           5|   -0.288586|  5.0000e+01|  5.0000e+01|  5.0000e+01|
|         388|  5.7552e-01|   -1.832576|    0.500043|    0.027131|           5|   -0.289610|  5.0000e+01|  5.0000e+01|  5.0000e+01|
|         389|  5.7636e-01|   -1.832683|    0.500015|    0.027124|           5|   -0.288917|  5.0000e+01|  5.0000e+01|  5.0000e+01|
|         390|  5.7721e-01|   -1.829489|    0.499892|    0.027118|           5|   -0.290161|  5.0000e+01|  5.0000e+01|  5.0000e+01|
|         391|  5.7764e-01|   -1.827925|    0.499943|    0.027116|           5|   -0.289135|  5.0000e+01|  5.0000e+01|  5.0000e+01|
|         392|  5.7689e-01|   -1.824763|    0.499929|    0.027112|           5|   -0.289733|  5.0000e+01|  5.0000e+01|  5.0000e+01|
|         393|  5.7617e-01|   -1.824084|    0.500093|    0.027120|           5|   -0.291063|  5.0000e+01|  5.0000e+01|  5.0000e+01|
|         394|  5.7545e-01|   -1.823885|    0.499999|    0.027109|           5|   -0.291727|  5.0000e+01|  5.0000e+01|  5.0000e+01|
|         395|  5.7471e-01|   -1.812684|    0.499980|    0.027064|           5|   -0.310589|  5.0000e+01|  5.0000e+01|  5.0000e+01|
|         396|  5.7397e-01|   -1.823379|    0.499984|    0.027058|           5|   -0.296506|  5.0000e+01|  5.0000e+01|  5.0000e+01|
|         397|  5.7442e-01|   -1.744686|    0.500325|    0.027052|           5|   -0.316750|  5.0000e+01|  5.0000e+01|  5.0000e+01|
|         398|  5.7515e-01|   -1.742024|    0.500725|    0.027044|           5|   -0.316131|  5.0000e+01|  5.0000e+01|  5.0000e+01|


Error in "void CSolver::SetResidual_RMS(const CGeometry*, const CConfig*)": 
-------------------------------------------------------------------------
SU2 has diverged (NaN detected).
------------------------------ Error Exit -------------------------------


