
-------------------------------------------------------------------------
|    ___ _   _ ___                                                      |
|   / __| | | |_  )   Release 8.0.0 "Harrier"                           |
|   \__ \ |_| |/ /                                                      |
|   |___/\___//___|   Suite (Computational Fluid Dynamics Code)         |
|                                                                       |
-------------------------------------------------------------------------
| SU2 Project Website: https://su2code.github.io                        |
|                                                                       |
| The SU2 Project is maintained by the SU2 Foundation                   |
| (http://su2foundation.org)                                            |
-------------------------------------------------------------------------
| Copyright 2012-2023, SU2 Contributors                                 |
|                                                                       |
| SU2 is free software; you can redistribute it and/or                  |
| modify it under the terms of the GNU Lesser General Public            |
| License as published by the Free Software Foundation; either          |
| version 2.1 of the License, or (at your option) any later version.    |
|                                                                       |
| SU2 is distributed in the hope that it will be useful,                |
| but WITHOUT ANY WARRANTY; without even the implied warranty of        |
| MERCHANTABILITY or FITNESS FOR A PARTICULAR PURPOSE. See the GNU      |
| Lesser General Public License for more details.                       |
|                                                                       |
| You should have received a copy of the GNU Lesser General Public      |
| License along with SU2. If not, see <http://www.gnu.org/licenses/>.   |
-------------------------------------------------------------------------

Parsing config file for zone 0

----------------- Physical Case Definition ( Zone 0 ) -------------------
Compressible RANS equations.
Turbulence model: Spalart-Allmaras-noft2
Hybrid RANS/LES: No Hybrid RANS/LES
Mach number: 0.734.
Angle of attack (AoA): 2.31 deg, and angle of sideslip (AoS): 0 deg.
Reynolds number: 6.5e+06. Reference length 1.
Fixed CL mode, target value: 0.824.
Reading and writing binary SU2 native restart files.
Read flow solution from: solution_flow.dat.
Dimensional simulation.
The reference area is 1 m^2.
The semi-span will be computed using the max y(3D) value.
The reference length is 1 m.
Reference origin for moment evaluation is (0.25, 0, 0).
Surface(s) where the force coefficients are evaluated: AIRFOIL.

Surface(s) plotted in the output file: AIRFOIL.
Surface(s) affected by the design variables: AIRFOIL.
Input mesh file name: mesh_RAE2822_turb_deform.su2

--------------- Space Numerical Integration ( Zone 0 ) ------------------
Jameson-Schmidt-Turkel scheme (2nd order in space) for the flow inviscid terms.
JST viscous coefficients (2nd & 4th): 0.5, 0.02.
The method includes a grid stretching correction (p = 0.3).
Scalar upwind solver for the turbulence model.
First order integration in space.
Average of gradients with correction (viscous flow terms).
Average of gradients with correction (viscous turbulence terms).
Gradient for viscous and source terms: inverse-distance weighted Least-Squares.

--------------- Time Numerical Integration  ( Zone 0 ) ------------------
Local time stepping (steady state simulation).
Euler implicit method for the flow equations.
FGMRES is used for solving the linear system.
Using a ILU(0) preconditioning.
Convergence criteria of the linear solver: 1e-06.
Max number of linear iterations: 10.
No CFL adaptation.
Courant-Friedrichs-Lewy number:       10
Euler implicit time integration for the turbulence model.

------------------ Convergence Criteria  ( Zone 0 ) ---------------------
Maximum number of solver subiterations: 5500.
Begin convergence monitoring at iteration 10.
Residual minimum value: 1e-12.
Cauchy series min. value: 1e-06.
Number of Cauchy elements: 100.
Begin windowed time average at iteration 0.

-------------------- Output Information ( Zone 0 ) ----------------------
File writing frequency: 
+------------------------------------+
|                     File| Frequency|
+------------------------------------+
|                  RESTART|     10000|
|                 PARAVIEW|     10000|
|         SURFACE_PARAVIEW|     10000|
|              SURFACE_CSV|     10000|
+------------------------------------+
Writing the convergence history file every 1 inner iterations.
Writing the screen convergence history every 1 inner iterations.
The tabular file format is CSV (.csv).
Convergence history file name: history_direct.
Forces breakdown file name: forces_breakdown.dat.
Surface file name: surface_flow.
Volume file name: flow.
Restart file name: restart_flow.dat.

------------- Config File Boundary Information ( Zone 0 ) ---------------
+-----------------------------------------------------------------------+
|                        Marker Type|                        Marker Name|
+-----------------------------------------------------------------------+
|                          Far-field|                           FARFIELD|
+-----------------------------------------------------------------------+
|                     Heat flux wall|                            AIRFOIL|
+-----------------------------------------------------------------------+

-------------------- Output Preprocessing ( Zone 0 ) --------------------

WARNING: SURFACE_PRESSURE_DROP can only be computed for at least 2 surfaces (outlet, inlet, ...)

Screen output fields: INNER_ITER, RMS_DENSITY, RMS_NU_TILDE, LIFT, DRAG
History output group(s): ITER, RMS_RES, AERO_COEFF
Convergence field(s): RMS_DENSITY
Warning: No (valid) fields chosen for time convergence monitoring. Time convergence monitoring inactive.
Volume output fields: COORDINATES, SOLUTION, PRIMITIVE

------------------- Geometry Preprocessing ( Zone 0 ) -------------------
Two dimensional problem.
13937 grid points before partitioning.
22842 volume elements before partitioning.
2 surface markers.
192 boundary elements in index 0 (Marker = AIRFOIL).
40 boundary elements in index 1 (Marker = FARFIELD).
Executing the partitioning functions.
Building the graph adjacency structure.
Calling ParMETIS... graph partitioning complete (831 edge cuts).
Distributing ParMETIS coloring.
Rebalancing vertices.
Rebalancing volume element connectivity.
Rebalancing markers and surface elements.
14875 vertices including ghost points. 
23674 interior elements including halo cells. 
18780 triangles.
4894 quadrilaterals.
Establishing MPI communication patterns.
Setting point connectivity.
Renumbering points (Reverse Cuthill McKee Ordering).
Recomputing point connectivity.
Setting element connectivity.
Checking the numerical grid orientation.
All volume elements are correctly orientend.
All surface elements are correctly orientend.
Identifying edges and vertices.
Setting the control volume structure.
Area of the computational grid: 32209.9.
Searching for the closest normal neighbors to the surfaces.
Storing a mapping from global to local point index.
Compute the surface curvature.
Max K: 226.626. Mean K: 8.67546. Standard deviation K: 29.2397.
Checking for periodicity.
Computing mesh quality statistics for the dual control volumes.
+--------------------------------------------------------------+
|           Mesh Quality Metric|        Minimum|        Maximum|
+--------------------------------------------------------------+
|    Orthogonality Angle (deg.)|        74.1278|        89.9995|
|     CV Face Area Aspect Ratio|        1.00144|        3359.57|
|           CV Sub-Volume Ratio|        1.00069|        1221.96|
+--------------------------------------------------------------+
Finding max control volume width.
Communicating number of neighbors.
Wetted area = 2.02122 m.
Area projection in the x-plane = 0.129531 m, y-plane = 0.995873 m.
Max. coordinate in the x-direction = 1 m, y-direction = 0.0612116 m.
Min. coordinate in the x-direction = 0 m, y-direction = -0.0639536 m.
Computing wall distances.

-------------------- Solver Preprocessing ( Zone 0 ) --------------------
WARNING: AoA in the solution file (2.75875 deg.) +
         AoA offset in mesh file (0 deg.) = 2.75875 deg.
WARNING: SU2 will use the dCD/dCL provided in the direct solution file: 0.0209266.
WARNING: SU2 will use the dCMz/dCL provided in the direct solution file: 0.0103616.
Viscous flow: Computing pressure using the ideal gas law
based on the free-stream temperature and a density computed
from the Reynolds number.
Force coefficients computed using free-stream values.

-- Models:
+------------------------------------------------------------------------------+
|          Viscosity Model|        Conductivity Model|              Fluid Model|
+------------------------------------------------------------------------------+
|               SUTHERLAND|          CONSTANT_PRANDTL|             STANDARD_AIR|
+------------------------------------------------------------------------------+
-- Fluid properties:
+------------------------------------------------------------------------------+
|                  Name|    Dim. value|    Ref. value|      Unit|Non-dim. value|
+------------------------------------------------------------------------------+
|        Ref. Viscosity|     1.716e-05|             1|   N.s/m^2|     1.716e-05|
|      Sutherland Temp.|        273.15|             1|         K|        273.15|
|     Sutherland Const.|         110.4|             1|         K|         110.4|
+------------------------------------------------------------------------------+
|        Prandtl (Lam.)|             -|             -|         -|          0.71|
|       Prandtl (Turb.)|             -|             -|         -|           0.9|
+------------------------------------------------------------------------------+
|          Gas Constant|       287.058|             1|  N.m/kg.K|       287.058|
|      Spec. Heat Ratio|             -|             -|         -|           1.4|
+------------------------------------------------------------------------------+
-- Initial and free-stream conditions:
+------------------------------------------------------------------------------+
|                  Name|    Dim. value|    Ref. value|      Unit|Non-dim. value|
+------------------------------------------------------------------------------+
|       Static Pressure|         38515|             1|        Pa|         38515|
|               Density|      0.465631|             1|    kg/m^3|      0.465631|
|           Temperature|        288.15|             1|         K|        288.15|
|          Total Energy|        237984|             1|   m^2/s^2|        237984|
|            Velocity-X|       249.489|             1|       m/s|       249.489|
|            Velocity-Y|        12.022|             1|       m/s|        12.022|
|    Velocity Magnitude|       249.778|             1|       m/s|       249.778|
+------------------------------------------------------------------------------+
|             Viscosity|    1.7893e-05|             1|   N.s/m^2|    1.7893e-05|
|          Conductivity|             -|             1|   W/m^2.K|             -|
|     Turb. Kin. Energy|       233.959|             1|   m^2/s^2|       233.959|
|     Spec. Dissipation|        608834|             1|       1/s|        608834|
+------------------------------------------------------------------------------+
|           Mach Number|             -|             -|         -|         0.734|
|       Reynolds Number|             -|             -|         -|       6.5e+06|
+------------------------------------------------------------------------------+
Initialize Jacobian structure (Navier-Stokes). MG level: 0.
Initialize Jacobian structure (SA model).

------------------- Numerics Preprocessing ( Zone 0 ) -------------------

----------------- Integration Preprocessing ( Zone 0 ) ------------------

------------------- Iteration Preprocessing ( Zone 0 ) ------------------
Euler/Navier-Stokes/RANS fluid iteration.

------------------------------ Begin Solver -----------------------------

Simulation Run using the Single-zone Driver
WARNING: SU2 was not compiled for an AVX-capable architecture. Performance could be better,
         see https://su2code.github.io/docs_v7/Build-SU2-Linux-MacOS/#compiler-optimizations
+----------------------------------------------------------------+
|  Inner_Iter|    rms[Rho]|     rms[nu]|          CL|          CD|
+----------------------------------------------------------------+
|           0|   -4.522552|   -5.817530|    0.823824|    0.011845|
|           1|   -4.587490|   -5.933188|    0.823728|    0.011782|
|           2|   -4.658087|   -6.060432|    0.823700|    0.011748|
|           3|   -4.708210|   -6.195414|    0.823711|    0.011736|
|           4|   -4.737195|   -6.333757|    0.823733|    0.011735|
|           5|   -4.752214|   -6.450092|    0.823750|    0.011739|
|           6|   -4.758412|   -6.499051|    0.823757|    0.011742|
|           7|   -4.759273|   -6.485910|    0.823754|    0.011743|
|           8|   -4.757482|   -6.458484|    0.823745|    0.011742|
|           9|   -4.754288|   -6.440179|    0.823733|    0.011739|
|          10|   -4.749503|   -6.431814|    0.823720|    0.011736|
|          11|   -4.742500|   -6.427201|    0.823708|    0.011731|
|          12|   -4.733164|   -6.420809|    0.823698|    0.011727|
|          13|   -4.722115|   -6.410890|    0.823689|    0.011723|
|          14|   -4.710354|   -6.399168|    0.823682|    0.011719|
|          15|   -4.698813|   -6.388636|    0.823678|    0.011715|
|          16|   -4.688118|   -6.381831|    0.823677|    0.011711|
|          17|   -4.678569|   -6.380335|    0.823681|    0.011707|
|          18|   -4.670263|   -6.384894|    0.823688|    0.011703|
|          19|   -4.663255|   -6.395536|    0.823700|    0.011700|
|          20|   -4.657652|   -6.411448|    0.823716|    0.011697|
|          21|   -4.653636|   -6.430759|    0.823738|    0.011695|
|          22|   -4.651393|   -6.450449|    0.823765|    0.011694|
|          23|   -4.651016|   -6.466806|    0.823797|    0.011693|
|          24|   -4.652419|   -6.476494|    0.823833|    0.011693|
|          25|   -4.655298|   -6.477927|    0.823873|    0.011694|
|          26|   -4.659151|   -6.471926|    0.823917|    0.011696|
|          27|   -4.663352|   -6.460921|    0.823963|    0.011699|
|          28|   -4.667255|   -6.447651|    0.824011|    0.011704|
|          29|   -4.670311|   -6.434276|    0.824059|    0.011709|
|          30|   -4.672147|   -6.422168|    0.824107|    0.011716|
|          31|   -4.672609|   -6.412050|    0.824154|    0.011724|
|          32|   -4.671747|   -6.404229|    0.824200|    0.011733|
|          33|   -4.669767|   -6.398794|    0.824243|    0.011744|
|          34|   -4.666965|   -6.395722|    0.824284|    0.011755|
|          35|   -4.663677|   -6.394937|    0.824322|    0.011768|
|          36|   -4.660224|   -6.396300|    0.824357|    0.011782|
|          37|   -4.656890|   -6.399612|    0.824389|    0.011797|
|          38|   -4.653898|   -6.404602|    0.824418|    0.011812|
|          39|   -4.651400|   -6.410927|    0.824443|    0.011828|
|          40|   -4.649471|   -6.418176|    0.824465|    0.011845|
|          41|   -4.648110|   -6.425899|    0.824484|    0.011861|
|          42|   -4.647247|   -6.433569|    0.824501|    0.011877|
|          43|   -4.646763|   -6.440677|    0.824514|    0.011893|
|          44|   -4.646503|   -6.446750|    0.824524|    0.011909|
|          45|   -4.646307|   -6.451386|    0.824531|    0.011924|
|          46|   -4.646031|   -6.454295|    0.824535|    0.011938|
|          47|   -4.645556|   -6.455342|    0.824537|    0.011952|
|          48|   -4.644804|   -6.454546|    0.824536|    0.011965|
|          49|   -4.643735|   -6.452125|    0.824531|    0.011977|
|          50|   -4.642338|   -6.448449|    0.824525|    0.011988|
|          51|   -4.640620|   -6.444003|    0.824515|    0.011999|
|          52|   -4.638596|   -6.439312|    0.824502|    0.012009|
|          53|   -4.636280|   -6.434884|    0.824487|    0.012018|
|          54|   -4.633680|   -6.431157|    0.824468|    0.012027|
|          55|   -4.630796|   -6.428467|    0.824447|    0.012035|
|          56|   -4.627627|   -6.427034|    0.824424|    0.012043|
|          57|   -4.624169|   -6.426958|    0.824397|    0.012050|
|          58|   -4.620424|   -6.428238|    0.824368|    0.012056|
|          59|   -4.616398|   -6.430777|    0.824337|    0.012063|
|          60|   -4.612109|   -6.434422|    0.824304|    0.012069|
|          61|   -4.607584|   -6.438980|    0.824270|    0.012074|
|          62|   -4.602861|   -6.444250|    0.824234|    0.012079|
|          63|   -4.597985|   -6.450022|    0.824198|    0.012083|
|          64|   -4.593007|   -6.456092|    0.824161|    0.012087|
|          65|   -4.587978|   -6.462267|    0.824125|    0.012091|
|          66|   -4.582951|   -6.468378|    0.824088|    0.012094|
|          67|   -4.577973|   -6.474278|    0.824053|    0.012096|
|          68|   -4.573083|   -6.479849|    0.824020|    0.012098|
|          69|   -4.568310|   -6.485012|    0.823988|    0.012100|
|          70|   -4.563676|   -6.489724|    0.823958|    0.012101|
|          71|   -4.559190|   -6.493987|    0.823930|    0.012102|
|          72|   -4.554855|   -6.497848|    0.823905|    0.012103|
|          73|   -4.550666|   -6.501389|    0.823882|    0.012103|
|          74|   -4.546615|   -6.504723|    0.823861|    0.012103|
|          75|   -4.542689|   -6.507967|    0.823843|    0.012103|
|          76|   -4.538875|   -6.511214|    0.823828|    0.012103|
|          77|   -4.535160|   -6.514537|    0.823814|    0.012102|
|          78|   -4.531532|   -6.517969|    0.823802|    0.012102|
|          79|   -4.527982|   -6.521513|    0.823792|    0.012101|
|          80|   -4.524505|   -6.525150|    0.823784|    0.012100|
|          81|   -4.521102|   -6.528834|    0.823777|    0.012099|
|          82|   -4.517781|   -6.532516|    0.823771|    0.012098|
|          83|   -4.514558|   -6.536158|    0.823766|    0.012096|
|          84|   -4.511458|   -6.539742|    0.823761|    0.012094|
|          85|   -4.508513|   -6.543282|    0.823757|    0.012093|
|          86|   -4.505764|   -6.546815|    0.823754|    0.012090|
|          87|   -4.503256|   -6.550407|    0.823750|    0.012088|
|          88|   -4.501037|   -6.554136|    0.823747|    0.012086|
|          89|   -4.499153|   -6.558069|    0.823743|    0.012083|
|          90|   -4.497647|   -6.562255|    0.823739|    0.012080|
|          91|   -4.496554|   -6.566724|    0.823735|    0.012076|
|          92|   -4.495899|   -6.571481|    0.823731|    0.012072|
|          93|   -4.495695|   -6.576498|    0.823726|    0.012068|
|          94|   -4.495943|   -6.581727|    0.823721|    0.012064|
|          95|   -4.496628|   -6.587101|    0.823716|    0.012059|
|          96|   -4.497721|   -6.592542|    0.823710|    0.012054|
|          97|   -4.499184|   -6.597972|    0.823703|    0.012049|
|          98|   -4.500964|   -6.603314|    0.823697|    0.012044|
|          99|   -4.502998|   -6.608507|    0.823690|    0.012038|
|         100|   -4.505217|   -6.613502|    0.823682|    0.012032|
|         101|   -4.507544|   -6.618270|    0.823675|    0.012048|
+-----------------------------------------------------------------------+
|Fixed CL Mode                           |Value                         |
+-----------------------------------------------------------------------+
|Current CL                              |0.823675                      |
|Target CL                               |0.824                         |
|Previous AOA                            |2.75875                       |
|Changed AoA by                          |0.00158788                    |
+-----------------------------------------------------------------------+
+----------------------------------------------------------------+
|  Inner_Iter|    rms[Rho]|     rms[nu]|          CL|          CD|
+----------------------------------------------------------------+
|         102|   -2.992136|   -6.599054|    0.823667|    0.012042|
|         103|   -3.373591|   -6.614826|    0.823660|    0.012035|
|         104|   -3.611453|   -6.622329|    0.823652|    0.012028|
|         105|   -3.689520|   -6.628067|    0.823645|    0.012021|
|         106|   -3.744912|   -6.633057|    0.823638|    0.012015|
|         107|   -3.816388|   -6.637522|    0.823631|    0.012008|
|         108|   -3.904140|   -6.641592|    0.823625|    0.012001|
|         109|   -3.995262|   -6.645329|    0.823620|    0.011994|
|         110|   -4.072489|   -6.648763|    0.823615|    0.011988|
|         111|   -4.126399|   -6.651904|    0.823611|    0.011981|
|         112|   -4.158402|   -6.654765|    0.823608|    0.011975|
|         113|   -4.173283|   -6.657380|    0.823606|    0.011970|
|         114|   -4.176297|   -6.659792|    0.823604|    0.011964|
|         115|   -4.174082|   -6.662037|    0.823604|    0.011959|
|         116|   -4.173047|   -6.664128|    0.823604|    0.011954|
|         117|   -4.176969|   -6.666047|    0.823606|    0.011950|
|         118|   -4.186350|   -6.667773|    0.823608|    0.011945|
|         119|   -4.199246|   -6.669287|    0.823611|    0.011942|
|         120|   -4.212769|   -6.670575|    0.823615|    0.011938|
|         121|   -4.224679|   -6.671626|    0.823619|    0.011935|
|         122|   -4.234314|   -6.672429|    0.823624|    0.011933|
|         123|   -4.242373|   -6.672982|    0.823629|    0.011930|
|         124|   -4.249973|   -6.673283|    0.823635|    0.011928|
|         125|   -4.257881|   -6.673340|    0.823641|    0.011927|
|         126|   -4.266300|   -6.673171|    0.823647|    0.011925|
|         127|   -4.275058|   -6.672800|    0.823653|    0.011924|
|         128|   -4.283852|   -6.672252|    0.823659|    0.011923|
|         129|   -4.292392|   -6.671551|    0.823665|    0.011923|
|         130|   -4.300439|   -6.670717|    0.823670|    0.011922|
|         131|   -4.307833|   -6.669770|    0.823676|    0.011922|
|         132|   -4.314534|   -6.668736|    0.823681|    0.011922|
|         133|   -4.320663|   -6.667635|    0.823686|    0.011922|
|         134|   -4.326484|   -6.666479|    0.823690|    0.011922|
|         135|   -4.332332|   -6.665283|    0.823694|    0.011922|
|         136|   -4.338502|   -6.664056|    0.823698|    0.011922|
|         137|   -4.345171|   -6.662808|    0.823702|    0.011922|
|         138|   -4.352337|   -6.661548|    0.823706|    0.011923|
|         139|   -4.359823|   -6.660291|    0.823709|    0.011923|
|         140|   -4.367293|   -6.659050|    0.823713|    0.011924|
|         141|   -4.374318|   -6.657839|    0.823716|    0.011924|
|         142|   -4.380471|   -6.656680|    0.823720|    0.011925|
|         143|   -4.385425|   -6.655599|    0.823724|    0.011926|
|         144|   -4.389051|   -6.654625|    0.823728|    0.011927|
|         145|   -4.391439|   -6.653783|    0.823732|    0.011928|
|         146|   -4.392864|   -6.653099|    0.823737|    0.011929|
|         147|   -4.393695|   -6.652596|    0.823743|    0.011930|
|         148|   -4.394290|   -6.652296|    0.823749|    0.011931|
|         149|   -4.394916|   -6.652214|    0.823756|    0.011933|
|         150|   -4.395709|   -6.652356|    0.823764|    0.011935|
|         151|   -4.396671|   -6.652727|    0.823772|    0.011937|
|         152|   -4.397706|   -6.653323|    0.823781|    0.011939|
|         153|   -4.398663|   -6.654133|    0.823791|    0.011941|
|         154|   -4.399387|   -6.655146|    0.823802|    0.011944|
|         155|   -4.399758|   -6.656334|    0.823814|    0.011946|
|         156|   -4.399712|   -6.657669|    0.823826|    0.011949|
|         157|   -4.399248|   -6.659121|    0.823840|    0.011952|
|         158|   -4.398419|   -6.660659|    0.823854|    0.011955|
|         159|   -4.397309|   -6.662244|    0.823868|    0.011959|
|         160|   -4.396013|   -6.663842|    0.823883|    0.011962|
|         161|   -4.394622|   -6.665420|    0.823899|    0.011966|
|         162|   -4.393208|   -6.666951|    0.823915|    0.011969|
|         163|   -4.391826|   -6.668409|    0.823931|    0.011973|
|         164|   -4.390512|   -6.669775|    0.823947|    0.011977|
|         165|   -4.389287|   -6.671038|    0.823963|    0.011981|
|         166|   -4.388165|   -6.672190|    0.823979|    0.011985|
|         167|   -4.387155|   -6.673230|    0.823994|    0.011989|
|         168|   -4.386262|   -6.674166|    0.824010|    0.011993|
|         169|   -4.385492|   -6.675009|    0.824025|    0.011997|
|         170|   -4.384846|   -6.675773|    0.824039|    0.012001|
|         171|   -4.384326|   -6.676476|    0.824052|    0.012005|
|         172|   -4.383929|   -6.677134|    0.824065|    0.012009|
|         173|   -4.383648|   -6.677768|    0.824077|    0.012012|
|         174|   -4.383476|   -6.678395|    0.824087|    0.012016|
|         175|   -4.383402|   -6.679031|    0.824097|    0.012019|
|         176|   -4.383417|   -6.679693|    0.824105|    0.012023|
|         177|   -4.383511|   -6.680393|    0.824113|    0.012026|
|         178|   -4.383676|   -6.681147|    0.824119|    0.012029|
|         179|   -4.383910|   -6.681963|    0.824124|    0.012033|
|         180|   -4.384210|   -6.682848|    0.824128|    0.012035|
|         181|   -4.384579|   -6.683811|    0.824130|    0.012038|
|         182|   -4.385021|   -6.684857|    0.824131|    0.012041|
|         183|   -4.385544|   -6.685992|    0.824131|    0.012043|
|         184|   -4.386156|   -6.687225|    0.824130|    0.012046|
|         185|   -4.386866|   -6.688562|    0.824128|    0.012048|
|         186|   -4.387680|   -6.690009|    0.824125|    0.012050|
|         187|   -4.388605|   -6.691574|    0.824121|    0.012052|
|         188|   -4.389644|   -6.693262|    0.824116|    0.012054|
|         189|   -4.390796|   -6.695078|    0.824110|    0.012056|
|         190|   -4.392055|   -6.697026|    0.824104|    0.012058|
|         191|   -4.393412|   -6.699108|    0.824096|    0.012059|
|         192|   -4.394850|   -6.701326|    0.824088|    0.012061|
|         193|   -4.396348|   -6.703682|    0.824080|    0.012062|
|         194|   -4.397879|   -6.706177|    0.824071|    0.012063|
|         195|   -4.399413|   -6.708810|    0.824061|    0.012064|
|         196|   -4.400916|   -6.711579|    0.824052|    0.012066|
|         197|   -4.402351|   -6.714483|    0.824041|    0.012066|
|         198|   -4.403684|   -6.717517|    0.824031|    0.012067|
|         199|   -4.404880|   -6.720675|    0.824021|    0.012068|
|         200|   -4.405911|   -6.723952|    0.824010|    0.012069|
|         201|   -4.406753|   -6.727341|    0.823999|    0.012068|
+-----------------------------------------------------------------------+
|Fixed CL Mode                           |Value                         |
+-----------------------------------------------------------------------+
|Current CL                              |0.823999                      |
|Target CL                               |0.824                         |
|Previous AOA                            |2.76034                       |
|Changed AoA by                          |-4.98771e-05                  |
+-----------------------------------------------------------------------+
+----------------------------------------------------------------+
|  Inner_Iter|    rms[Rho]|     rms[nu]|          CL|          CD|
+----------------------------------------------------------------+
|         202|   -4.295679|   -6.730829|    0.823988|    0.012069|
|         203|   -4.386973|   -6.734458|    0.823978|    0.012069|
|         204|   -4.405365|   -6.738163|    0.823967|    0.012069|
|         205|   -4.408156|   -6.741949|    0.823956|    0.012069|
|         206|   -4.408156|   -6.745816|    0.823946|    0.012069|
|         207|   -4.407551|   -6.749762|    0.823936|    0.012068|
|         208|   -4.406885|   -6.753789|    0.823926|    0.012068|
|         209|   -4.406296|   -6.757898|    0.823916|    0.012067|
|         210|   -4.405849|   -6.762092|    0.823906|    0.012067|
|         211|   -4.405617|   -6.766376|    0.823897|    0.012066|
|         212|   -4.405665|   -6.770753|    0.823888|    0.012065|
|         213|   -4.406049|   -6.775231|    0.823880|    0.012064|
|         214|   -4.406829|   -6.779816|    0.823872|    0.012062|
|         215|   -4.408071|   -6.784516|    0.823864|    0.012061|
|         216|   -4.409838|   -6.789339|    0.823857|    0.012059|
|         217|   -4.412181|   -6.794294|    0.823850|    0.012058|
|         218|   -4.415138|   -6.799392|    0.823844|    0.012056|
|         219|   -4.418735|   -6.804642|    0.823839|    0.012054|
|         220|   -4.422991|   -6.810058|    0.823834|    0.012052|
|         221|   -4.427927|   -6.815653|    0.823829|    0.012050|
|         222|   -4.433559|   -6.821437|    0.823825|    0.012048|
|         223|   -4.439900|   -6.827421|    0.823822|    0.012046|
|         224|   -4.446957|   -6.833616|    0.823819|    0.012043|
|         225|   -4.454721|   -6.840033|    0.823817|    0.012041|
|         226|   -4.463170|   -6.846683|    0.823816|    0.012038|
|         227|   -4.472269|   -6.853574|    0.823815|    0.012036|
|         228|   -4.481965|   -6.860717|    0.823814|    0.012033|
|         229|   -4.492188|   -6.868121|    0.823814|    0.012031|
|         230|   -4.502855|   -6.875796|    0.823815|    0.012028|
|         231|   -4.513866|   -6.883748|    0.823816|    0.012025|
|         232|   -4.525104|   -6.891980|    0.823817|    0.012023|
|         233|   -4.536441|   -6.900494|    0.823819|    0.012020|
|         234|   -4.547739|   -6.909292|    0.823821|    0.012018|
|         235|   -4.558848|   -6.918374|    0.823824|    0.012015|
|         236|   -4.569617|   -6.927741|    0.823827|    0.012012|
|         237|   -4.579893|   -6.937394|    0.823830|    0.012010|
|         238|   -4.589529|   -6.947330|    0.823834|    0.012007|
|         239|   -4.598388|   -6.957547|    0.823837|    0.012005|
|         240|   -4.606354|   -6.968042|    0.823841|    0.012003|
|         241|   -4.613335|   -6.978808|    0.823845|    0.012000|
|         242|   -4.619270|   -6.989841|    0.823849|    0.011998|
|         243|   -4.624133|   -7.001132|    0.823853|    0.011996|
|         244|   -4.627936|   -7.012669|    0.823857|    0.011994|
|         245|   -4.630725|   -7.024441|    0.823861|    0.011992|
|         246|   -4.632575|   -7.036434|    0.823866|    0.011990|
|         247|   -4.633589|   -7.048636|    0.823870|    0.011988|
|         248|   -4.633886|   -7.061034|    0.823874|    0.011986|
|         249|   -4.633595|   -7.073619|    0.823878|    0.011984|
|         250|   -4.632849|   -7.086383|    0.823882|    0.011982|
|         251|   -4.631778|   -7.099318|    0.823886|    0.011981|
|         252|   -4.630505|   -7.112417|    0.823890|    0.011979|
|         253|   -4.629146|   -7.125676|    0.823893|    0.011978|
|         254|   -4.627804|   -7.139089|    0.823897|    0.011977|
|         255|   -4.626570|   -7.152654|    0.823901|    0.011975|
|         256|   -4.625525|   -7.166369|    0.823904|    0.011974|
|         257|   -4.624736|   -7.180231|    0.823908|    0.011973|
|         258|   -4.624263|   -7.194237|    0.823912|    0.011972|
|         259|   -4.624151|   -7.208380|    0.823915|    0.011971|
|         260|   -4.624442|   -7.222647|    0.823919|    0.011971|
|         261|   -4.625167|   -7.237019|    0.823922|    0.011970|
|         262|   -4.626349|   -7.251468|    0.823926|    0.011969|
|         263|   -4.628006|   -7.265960|    0.823929|    0.011969|
|         264|   -4.630153|   -7.280451|    0.823933|    0.011969|
|         265|   -4.632795|   -7.294889|    0.823937|    0.011969|
|         266|   -4.635937|   -7.309218|    0.823940|    0.011968|
|         267|   -4.639578|   -7.323370|    0.823944|    0.011969|
|         268|   -4.643712|   -7.337271|    0.823948|    0.011969|
|         269|   -4.648332|   -7.350842|    0.823952|    0.011969|
|         270|   -4.653426|   -7.364003|    0.823956|    0.011969|
|         271|   -4.658980|   -7.376672|    0.823960|    0.011970|
|         272|   -4.664973|   -7.388769|    0.823964|    0.011970|
|         273|   -4.671385|   -7.400215|    0.823968|    0.011971|
|         274|   -4.678190|   -7.410937|    0.823972|    0.011972|
|         275|   -4.685357|   -7.420865|    0.823977|    0.011973|
|         276|   -4.692852|   -7.429940|    0.823981|    0.011974|
|         277|   -4.700639|   -7.438115|    0.823985|    0.011975|
|         278|   -4.708675|   -7.445357|    0.823989|    0.011976|
|         279|   -4.716914|   -7.451647|    0.823994|    0.011977|
|         280|   -4.725306|   -7.456981|    0.823998|    0.011979|
|         281|   -4.733795|   -7.461371|    0.824002|    0.011980|
|         282|   -4.742326|   -7.464844|    0.824006|    0.011982|
|         283|   -4.750836|   -7.467437|    0.824010|    0.011983|
|         284|   -4.759265|   -7.469193|    0.824014|    0.011985|
|         285|   -4.767549|   -7.470169|    0.824018|    0.011987|
|         286|   -4.775624|   -7.470438|    0.824021|    0.011988|
|         287|   -4.783431|   -7.470077|    0.824025|    0.011990|
|         288|   -4.790912|   -7.469170|    0.824028|    0.011992|
|         289|   -4.798015|   -7.467809|    0.824031|    0.011994|
|         290|   -4.804695|   -7.466087|    0.824034|    0.011996|
|         291|   -4.810914|   -7.464107|    0.824036|    0.011998|
|         292|   -4.816645|   -7.461970|    0.824038|    0.012000|
|         293|   -4.821870|   -7.459780|    0.824040|    0.012002|
|         294|   -4.826580|   -7.457635|    0.824042|    0.012004|
|         295|   -4.830779|   -7.455629|    0.824044|    0.012006|
|         296|   -4.834476|   -7.453847|    0.824045|    0.012008|
|         297|   -4.837691|   -7.452367|    0.824046|    0.012010|
|         298|   -4.840451|   -7.451259|    0.824046|    0.012012|
|         299|   -4.842785|   -7.450578|    0.824047|    0.012014|
|         300|   -4.844728|   -7.450370|    0.824047|    0.012016|
|         301|   -4.846317|   -7.450664|    0.824047|    0.012014|
+-----------------------------------------------------------------------+
|Fixed CL Mode                           |Value                         |
+-----------------------------------------------------------------------+
|Current CL                              |0.824047                      |
|Target CL                               |0.824                         |
|Previous AOA                            |2.76029                       |
|Changed AoA by                          |-0.000234349                  |
+-----------------------------------------------------------------------+
+----------------------------------------------------------------+
|  Inner_Iter|    rms[Rho]|     rms[nu]|          CL|          CD|
+----------------------------------------------------------------+
|         302|   -3.821817|   -7.430336|    0.824046|    0.012016|
|         303|   -4.200449|   -7.443277|    0.824046|    0.012018|
|         304|   -4.433086|   -7.448545|    0.824045|    0.012019|
|         305|   -4.504478|   -7.452572|    0.824044|    0.012021|
|         306|   -4.548246|   -7.456341|    0.824043|    0.012022|
|         307|   -4.599969|   -7.460056|    0.824041|    0.012024|
|         308|   -4.656524|   -7.463746|    0.824039|    0.012025|
|         309|   -4.705411|   -7.467389|    0.824038|    0.012027|
|         310|   -4.738057|   -7.470928|    0.824036|    0.012028|
|         311|   -4.755943|   -7.474286|    0.824033|    0.012029|
|         312|   -4.764763|   -7.477382|    0.824031|    0.012030|
|         313|   -4.768501|   -7.480174|    0.824029|    0.012031|
|         314|   -4.769385|   -7.482628|    0.824026|    0.012032|
|         315|   -4.769327|   -7.484714|    0.824024|    0.012033|
|         316|   -4.770077|   -7.486387|    0.824021|    0.012034|
|         317|   -4.772625|   -7.487600|    0.824019|    0.012034|
|         318|   -4.776907|   -7.488324|    0.824016|    0.012035|
|         319|   -4.782081|   -7.488559|    0.824013|    0.012036|
|         320|   -4.787127|   -7.488321|    0.824010|    0.012036|
|         321|   -4.791405|   -7.487654|    0.824007|    0.012036|
|         322|   -4.794841|   -7.486607|    0.824004|    0.012037|
|         323|   -4.797743|   -7.485239|    0.824001|    0.012037|
|         324|   -4.800479|   -7.483620|    0.823998|    0.012037|
|         325|   -4.803259|   -7.481819|    0.823995|    0.012037|
|         326|   -4.806101|   -7.479920|    0.823992|    0.012037|
|         327|   -4.808912|   -7.477993|    0.823989|    0.012037|
|         328|   -4.811584|   -7.476105|    0.823986|    0.012037|
|         329|   -4.814042|   -7.474314|    0.823983|    0.012036|
|         330|   -4.816266|   -7.472667|    0.823979|    0.012036|
|         331|   -4.818288|   -7.471202|    0.823976|    0.012036|
|         332|   -4.820194|   -7.469941|    0.823973|    0.012035|
|         333|   -4.822114|   -7.468898|    0.823970|    0.012035|
|         334|   -4.824203|   -7.468077|    0.823967|    0.012034|
|         335|   -4.826613|   -7.467467|    0.823964|    0.012034|
|         336|   -4.829464|   -7.467050|    0.823961|    0.012033|
|         337|   -4.832826|   -7.466799|    0.823958|    0.012032|
|         338|   -4.836713|   -7.466679|    0.823955|    0.012031|
|         339|   -4.841089|   -7.466653|    0.823952|    0.012031|
|         340|   -4.845881|   -7.466688|    0.823949|    0.012030|
|         341|   -4.850995|   -7.466751|    0.823946|    0.012029|
|         342|   -4.856338|   -7.466812|    0.823943|    0.012028|
|         343|   -4.861838|   -7.466846|    0.823940|    0.012027|
|         344|   -4.867457|   -7.466833|    0.823938|    0.012026|
|         345|   -4.873196|   -7.466760|    0.823935|    0.012025|
|         346|   -4.879088|   -7.466623|    0.823933|    0.012024|
|         347|   -4.885184|   -7.466428|    0.823930|    0.012023|
|         348|   -4.891535|   -7.466186|    0.823928|    0.012022|
|         349|   -4.898172|   -7.465918|    0.823926|    0.012021|
|         350|   -4.905100|   -7.465649|    0.823924|    0.012020|
|         351|   -4.912289|   -7.465411|    0.823922|    0.012019|
|         352|   -4.919683|   -7.465238|    0.823920|    0.012018|
|         353|   -4.927203|   -7.465167|    0.823919|    0.012017|
|         354|   -4.934760|   -7.465234|    0.823917|    0.012016|
|         355|   -4.942265|   -7.465474|    0.823916|    0.012015|
|         356|   -4.949636|   -7.465925|    0.823915|    0.012014|
|         357|   -4.956800|   -7.466618|    0.823914|    0.012013|
|         358|   -4.963696|   -7.467583|    0.823913|    0.012012|
|         359|   -4.970272|   -7.468844|    0.823912|    0.012011|
|         360|   -4.976480|   -7.470421|    0.823912|    0.012010|
|         361|   -4.982274|   -7.472325|    0.823911|    0.012009|
|         362|   -4.987611|   -7.474562|    0.823911|    0.012008|
|         363|   -4.992444|   -7.477132|    0.823911|    0.012008|
|         364|   -4.996732|   -7.480031|    0.823911|    0.012007|
|         365|   -5.000439|   -7.483246|    0.823911|    0.012006|
|         366|   -5.003537|   -7.486764|    0.823912|    0.012005|
|         367|   -5.006009|   -7.490563|    0.823913|    0.012004|
|         368|   -5.007854|   -7.494619|    0.823913|    0.012003|
|         369|   -5.009084|   -7.498901|    0.823914|    0.012003|
|         370|   -5.009726|   -7.503378|    0.823915|    0.012002|
|         371|   -5.009817|   -7.508013|    0.823917|    0.012001|
|         372|   -5.009410|   -7.512771|    0.823918|    0.012001|
|         373|   -5.008560|   -7.517613|    0.823920|    0.012000|
|         374|   -5.007334|   -7.522501|    0.823922|    0.011999|
|         375|   -5.005799|   -7.527401|    0.823924|    0.011999|
|         376|   -5.004025|   -7.532277|    0.823926|    0.011998|
|         377|   -5.002084|   -7.537098|    0.823929|    0.011998|
|         378|   -5.000044|   -7.541835|    0.823931|    0.011997|
|         379|   -4.997972|   -7.546463|    0.823934|    0.011997|
|         380|   -4.995930|   -7.550960|    0.823937|    0.011996|
|         381|   -4.993977|   -7.555308|    0.823940|    0.011996|
|         382|   -4.992164|   -7.559493|    0.823943|    0.011996|
|         383|   -4.990538|   -7.563504|    0.823946|    0.011995|
|         384|   -4.989140|   -7.567334|    0.823950|    0.011995|
|         385|   -4.988006|   -7.570977|    0.823953|    0.011995|
|         386|   -4.987165|   -7.574431|    0.823957|    0.011995|
|         387|   -4.986639|   -7.577696|    0.823961|    0.011995|
|         388|   -4.986448|   -7.580771|    0.823965|    0.011995|
|         389|   -4.986604|   -7.583657|    0.823969|    0.011995|
|         390|   -4.987117|   -7.586356|    0.823972|    0.011995|
|         391|   -4.987991|   -7.588868|    0.823976|    0.011995|
|         392|   -4.989226|   -7.591194|    0.823980|    0.011995|
|         393|   -4.990819|   -7.593336|    0.823984|    0.011995|
|         394|   -4.992763|   -7.595292|    0.823988|    0.011995|
|         395|   -4.995049|   -7.597059|    0.823992|    0.011995|
|         396|   -4.997663|   -7.598635|    0.823996|    0.011995|
|         397|   -5.000591|   -7.600012|    0.824000|    0.011995|
|         398|   -5.003815|   -7.601186|    0.824004|    0.011995|
|         399|   -5.007315|   -7.602147|    0.824008|    0.011996|
|         400|   -5.011071|   -7.602889|    0.824011|    0.011996|
|         401|   -5.015058|   -7.603401|    0.824015|    0.011995|
+-----------------------------------------------------------------------+
|Fixed CL Mode                           |Value                         |
+-----------------------------------------------------------------------+
|Current CL                              |0.824015                      |
|Target CL                               |0.824                         |
|Previous AOA                            |2.76005                       |
|Changed AoA by                          |-5.60661e-05                  |
+-----------------------------------------------------------------------+
+----------------------------------------------------------------+
|  Inner_Iter|    rms[Rho]|     rms[nu]|          CL|          CD|
+----------------------------------------------------------------+
|         402|   -4.429181|   -7.601303|    0.824018|    0.011996|
|         403|   -4.751158|   -7.602613|    0.824022|    0.011996|
|         404|   -4.895048|   -7.602644|    0.824025|    0.011996|
|         405|   -4.932996|   -7.602274|    0.824028|    0.011997|
|         406|   -4.956846|   -7.601650|    0.824031|    0.011997|
|         407|   -4.981324|   -7.600803|    0.824034|    0.011998|
|         408|   -5.004444|   -7.599738|    0.824036|    0.011998|
|         409|   -5.022800|   -7.598457|    0.824039|    0.011998|
|         410|   -5.035646|   -7.596975|    0.824041|    0.011999|
|         411|   -5.044532|   -7.595316|    0.824044|    0.011999|
|         412|   -5.051192|   -7.593516|    0.824046|    0.012000|
|         413|   -5.056601|   -7.591623|    0.824048|    0.012000|
|         414|   -5.061257|   -7.589692|    0.824049|    0.012001|
|         415|   -5.065575|   -7.587782|    0.824051|    0.012002|
|         416|   -5.069950|   -7.585949|    0.824052|    0.012002|
|         417|   -5.074617|   -7.584253|    0.824053|    0.012003|
|         418|   -5.079563|   -7.582749|    0.824054|    0.012003|
|         419|   -5.084574|   -7.581493|    0.824055|    0.012004|
|         420|   -5.089384|   -7.580535|    0.824056|    0.012004|
|         421|   -5.093812|   -7.579920|    0.824056|    0.012005|
|         422|   -5.097813|   -7.579685|    0.824057|    0.012006|
|         423|   -5.101443|   -7.579859|    0.824057|    0.012006|
|         424|   -5.104785|   -7.580468|    0.824057|    0.012007|
|         425|   -5.107899|   -7.581528|    0.824057|    0.012007|
|         426|   -5.110803|   -7.583049|    0.824056|    0.012008|
|         427|   -5.113487|   -7.585034|    0.824056|    0.012008|
|         428|   -5.115923|   -7.587479|    0.824055|    0.012009|
|         429|   -5.118075|   -7.590375|    0.824054|    0.012009|
|         430|   -5.119905|   -7.593704|    0.824053|    0.012010|
|         431|   -5.121377|   -7.597445|    0.824052|    0.012010|
|         432|   -5.122466|   -7.601567|    0.824050|    0.012011|
|         433|   -5.123160|   -7.606037|    0.824049|    0.012011|
|         434|   -5.123469|   -7.610812|    0.824047|    0.012011|
|         435|   -5.123417|   -7.615846|    0.824045|    0.012012|
|         436|   -5.123035|   -7.621086|    0.824044|    0.012012|
|         437|   -5.122358|   -7.626474|    0.824042|    0.012012|
|         438|   -5.121419|   -7.631950|    0.824040|    0.012013|
|         439|   -5.120244|   -7.637449|    0.824037|    0.012013|
|         440|   -5.118857|   -7.642902|    0.824035|    0.012013|
|         441|   -5.117276|   -7.648242|    0.824033|    0.012014|
|         442|   -5.115521|   -7.653403|    0.824031|    0.012014|
|         443|   -5.113616|   -7.658321|    0.824028|    0.012014|
|         444|   -5.111591|   -7.662938|    0.824026|    0.012014|
|         445|   -5.109481|   -7.667201|    0.824023|    0.012014|
|         446|   -5.107327|   -7.671070|    0.824021|    0.012014|
|         447|   -5.105174|   -7.674510|    0.824019|    0.012014|
|         448|   -5.103065|   -7.677499|    0.824016|    0.012015|
|         449|   -5.101040|   -7.680026|    0.824014|    0.012015|
|         450|   -5.099133|   -7.682089|    0.824011|    0.012015|
|         451|   -5.097376|   -7.683700|    0.824009|    0.012015|
|         452|   -5.095795|   -7.684881|    0.824006|    0.012015|
|         453|   -5.094412|   -7.685661|    0.824004|    0.012015|
|         454|   -5.093249|   -7.686077|    0.824002|    0.012015|
|         455|   -5.092327|   -7.686168|    0.824000|    0.012015|
|         456|   -5.091663|   -7.685978|    0.823997|    0.012014|
|         457|   -5.091277|   -7.685550|    0.823995|    0.012014|
|         458|   -5.091185|   -7.684926|    0.823993|    0.012014|
|         459|   -5.091403|   -7.684149|    0.823991|    0.012014|
|         460|   -5.091944|   -7.683256|    0.823989|    0.012014|
|         461|   -5.092817|   -7.682280|    0.823987|    0.012014|
|         462|   -5.094029|   -7.681253|    0.823986|    0.012014|
|         463|   -5.095584|   -7.680201|    0.823984|    0.012014|
|         464|   -5.097482|   -7.679147|    0.823982|    0.012014|
|         465|   -5.099721|   -7.678112|    0.823981|    0.012013|
|         466|   -5.102296|   -7.677111|    0.823980|    0.012013|
|         467|   -5.105197|   -7.676159|    0.823978|    0.012013|
|         468|   -5.108416|   -7.675269|    0.823977|    0.012013|
|         469|   -5.111937|   -7.674454|    0.823976|    0.012013|
|         470|   -5.115746|   -7.673724|    0.823975|    0.012013|
|         471|   -5.119823|   -7.673093|    0.823974|    0.012012|
|         472|   -5.124147|   -7.672572|    0.823973|    0.012012|
|         473|   -5.128694|   -7.672172|    0.823973|    0.012012|
|         474|   -5.133437|   -7.671907|    0.823972|    0.012012|
|         475|   -5.138346|   -7.671789|    0.823972|    0.012012|
|         476|   -5.143388|   -7.671834|    0.823971|    0.012012|
|         477|   -5.148529|   -7.672055|    0.823971|    0.012011|
|         478|   -5.153732|   -7.672466|    0.823971|    0.012011|
|         479|   -5.158958|   -7.673083|    0.823971|    0.012011|
|         480|   -5.164166|   -7.673919|    0.823971|    0.012011|
|         481|   -5.169314|   -7.674986|    0.823972|    0.012011|
|         482|   -5.174361|   -7.676297|    0.823972|    0.012011|
|         483|   -5.179264|   -7.677859|    0.823973|    0.012011|
|         484|   -5.183980|   -7.679681|    0.823973|    0.012011|
|         485|   -5.188469|   -7.681765|    0.823974|    0.012011|
|         486|   -5.192693|   -7.684112|    0.823975|    0.012011|
|         487|   -5.196616|   -7.686718|    0.823976|    0.012010|
|         488|   -5.200207|   -7.689577|    0.823977|    0.012010|
|         489|   -5.203437|   -7.692677|    0.823979|    0.012010|
|         490|   -5.206285|   -7.696002|    0.823980|    0.012010|
|         491|   -5.208735|   -7.699532|    0.823981|    0.012010|
|         492|   -5.210778|   -7.703238|    0.823983|    0.012010|
|         493|   -5.212410|   -7.707091|    0.823985|    0.012010|
|         494|   -5.213634|   -7.711051|    0.823986|    0.012010|
|         495|   -5.214463|   -7.715077|    0.823988|    0.012010|
|         496|   -5.214911|   -7.719119|    0.823990|    0.012010|
|         497|   -5.215002|   -7.723123|    0.823992|    0.012010|
|         498|   -5.214763|   -7.727031|    0.823994|    0.012010|
|         499|   -5.214225|   -7.730782|    0.823996|    0.012011|
|         500|   -5.213424|   -7.734312|    0.823998|    0.012011|
|         501|   -5.212398|   -7.737554|    0.824000|    0.012011|
+-----------------------------------------------------------------------+
|Fixed CL Mode                           |Value                         |
+-----------------------------------------------------------------------+
|Current CL                              |0.824                         |
|Target CL                               |0.824                         |
|Previous AOA                            |2.76                          |
|Changed AoA by                          |9.82704e-06                   |
+-----------------------------------------------------------------------+
+----------------------------------------------------------------+
|  Inner_Iter|    rms[Rho]|     rms[nu]|          CL|          CD|
+----------------------------------------------------------------+
|         502|   -5.059182|   -7.740404|    0.824002|    0.012011|
|         503|   -5.185071|   -7.742970|    0.824004|    0.012011|
|         504|   -5.207705|   -7.744997|    0.824007|    0.012011|
|         505|   -5.207306|   -7.746475|    0.824009|    0.012011|
|         506|   -5.204738|   -7.747364|    0.824011|    0.012011|
|         507|   -5.202717|   -7.747635|    0.824013|    0.012011|
|         508|   -5.201185|   -7.747273|    0.824015|    0.012012|
|         509|   -5.199785|   -7.746278|    0.824017|    0.012012|
|         510|   -5.198386|   -7.744665|    0.824019|    0.012012|
|         511|   -5.197056|   -7.742461|    0.824021|    0.012012|
|         512|   -5.195896|   -7.739708|    0.824023|    0.012012|
|         513|   -5.194971|   -7.736455|    0.824025|    0.012012|
|         514|   -5.194309|   -7.732763|    0.824027|    0.012012|
|         515|   -5.193931|   -7.728697|    0.824029|    0.012013|
|         516|   -5.193845|   -7.724327|    0.824031|    0.012013|
|         517|   -5.194054|   -7.719722|    0.824032|    0.012013|
|         518|   -5.194550|   -7.714953|    0.824034|    0.012013|
|         519|   -5.195322|   -7.710087|    0.824035|    0.012013|
|         520|   -5.196361|   -7.705186|    0.824037|    0.012013|
|         521|   -5.197669|   -7.700309|    0.824038|    0.012013|
|         522|   -5.199251|   -7.695507|    0.824039|    0.012014|
|         523|   -5.201118|   -7.690828|    0.824040|    0.012014|
|         524|   -5.203275|   -7.686309|    0.824041|    0.012014|
|         525|   -5.205719|   -7.681984|    0.824042|    0.012014|
|         526|   -5.208445|   -7.677877|    0.824043|    0.012014|
|         527|   -5.211438|   -7.674008|    0.824044|    0.012014|
|         528|   -5.214683|   -7.670391|    0.824045|    0.012014|
|         529|   -5.218166|   -7.667035|    0.824046|    0.012014|
|         530|   -5.221870|   -7.663943|    0.824046|    0.012014|
|         531|   -5.225783|   -7.661115|    0.824047|    0.012014|
|         532|   -5.229892|   -7.658545|    0.824047|    0.012014|
|         533|   -5.234184|   -7.656227|    0.824047|    0.012014|
|         534|   -5.238647|   -7.654152|    0.824048|    0.012014|
|         535|   -5.243264|   -7.652308|    0.824048|    0.012014|
|         536|   -5.248017|   -7.650681|    0.824048|    0.012014|
|         537|   -5.252882|   -7.649260|    0.824048|    0.012014|
|         538|   -5.257831|   -7.648032|    0.824049|    0.012014|
|         539|   -5.262830|   -7.646984|    0.824049|    0.012014|
|         540|   -5.267843|   -7.646105|    0.824049|    0.012014|
|         541|   -5.272831|   -7.645385|    0.824049|    0.012014|
|         542|   -5.277751|   -7.644815|    0.824049|    0.012014|
|         543|   -5.282563|   -7.644389|    0.824049|    0.012013|
|         544|   -5.287224|   -7.644101|    0.824049|    0.012013|
|         545|   -5.291694|   -7.643948|    0.824049|    0.012013|
|         546|   -5.295933|   -7.643926|    0.824049|    0.012013|
|         547|   -5.299905|   -7.644036|    0.824049|    0.012013|
|         548|   -5.303575|   -7.644275|    0.824049|    0.012013|
|         549|   -5.306912|   -7.644646|    0.824049|    0.012012|
|         550|   -5.309886|   -7.645147|    0.824048|    0.012012|
|         551|   -5.312477|   -7.645781|    0.824048|    0.012012|
|         552|   -5.314664|   -7.646550|    0.824048|    0.012012|
|         553|   -5.316437|   -7.647455|    0.824048|    0.012012|
|         554|   -5.317792|   -7.648499|    0.824048|    0.012011|
|         555|   -5.318732|   -7.649681|    0.824048|    0.012011|
|         556|   -5.319267|   -7.651003|    0.824048|    0.012011|
|         557|   -5.319415|   -7.652462|    0.824048|    0.012011|
|         558|   -5.319202|   -7.654057|    0.824048|    0.012010|
|         559|   -5.318660|   -7.655784|    0.824048|    0.012010|
|         560|   -5.317824|   -7.657639|    0.824048|    0.012010|
|         561|   -5.316736|   -7.659617|    0.824048|    0.012010|
|         562|   -5.315440|   -7.661711|    0.824048|    0.012009|
|         563|   -5.313982|   -7.663914|    0.824048|    0.012009|
|         564|   -5.312410|   -7.666214|    0.824048|    0.012009|
|         565|   -5.310772|   -7.668605|    0.824048|    0.012009|
|         566|   -5.309113|   -7.671075|    0.824048|    0.012008|
|         567|   -5.307482|   -7.673612|    0.824048|    0.012008|
|         568|   -5.305920|   -7.676205|    0.824049|    0.012008|
|         569|   -5.304471|   -7.678843|    0.824049|    0.012008|
|         570|   -5.303174|   -7.681514|    0.824049|    0.012007|
|         571|   -5.302064|   -7.684205|    0.824049|    0.012007|
|         572|   -5.301176|   -7.686906|    0.824049|    0.012007|
|         573|   -5.300539|   -7.689608|    0.824049|    0.012007|
|         574|   -5.300181|   -7.692299|    0.824049|    0.012007|
|         575|   -5.300125|   -7.694972|    0.824050|    0.012007|
|         576|   -5.300392|   -7.697620|    0.824050|    0.012006|
|         577|   -5.301001|   -7.700236|    0.824050|    0.012006|
|         578|   -5.301965|   -7.702820|    0.824050|    0.012006|
|         579|   -5.303298|   -7.705367|    0.824050|    0.012006|
|         580|   -5.305007|   -7.707874|    0.824051|    0.012006|
|         581|   -5.307099|   -7.710339|    0.824051|    0.012006|
|         582|   -5.309577|   -7.712766|    0.824051|    0.012006|
|         583|   -5.312443|   -7.715158|    0.824052|    0.012006|
|         584|   -5.315693|   -7.717522|    0.824052|    0.012006|
|         585|   -5.319324|   -7.719867|    0.824052|    0.012006|
|         586|   -5.323327|   -7.722202|    0.824053|    0.012006|
|         587|   -5.327691|   -7.724540|    0.824053|    0.012006|
|         588|   -5.332405|   -7.726892|    0.824054|    0.012006|
|         589|   -5.337450|   -7.729276|    0.824054|    0.012006|
|         590|   -5.342807|   -7.731702|    0.824055|    0.012006|
|         591|   -5.348453|   -7.734184|    0.824055|    0.012006|
|         592|   -5.354361|   -7.736735|    0.824056|    0.012006|
|         593|   -5.360504|   -7.739369|    0.824056|    0.012006|
|         594|   -5.366846|   -7.742099|    0.824057|    0.012007|
|         595|   -5.373351|   -7.744939|    0.824057|    0.012007|
|         596|   -5.379981|   -7.747902|    0.824058|    0.012007|
|         597|   -5.386690|   -7.751001|    0.824059|    0.012007|
|         598|   -5.393434|   -7.754247|    0.824059|    0.012007|
|         599|   -5.400164|   -7.757650|    0.824060|    0.012008|
|         600|   -5.406828|   -7.761217|    0.824061|    0.012008|
|         601|   -5.413375|   -7.764956|    0.824061|    0.012004|
+-----------------------------------------------------------------------+
|Fixed CL Mode                           |Value                         |
+-----------------------------------------------------------------------+
|Current CL                              |0.824061                      |
|Target CL                               |0.824                         |
|Previous AOA                            |2.76001                       |
|Changed AoA by                          |-0.00030325                   |
+-----------------------------------------------------------------------+
+----------------------------------------------------------------+
|  Inner_Iter|    rms[Rho]|     rms[nu]|          CL|          CD|
+----------------------------------------------------------------+
|         602|   -3.711426|   -7.636774|    0.824062|    0.012004|
|         603|   -4.094864|   -7.695812|    0.824063|    0.012005|
|         604|   -4.336320|   -7.718658|    0.824064|    0.012005|
|         605|   -4.414089|   -7.733610|    0.824065|    0.012005|
|         606|   -4.467589|   -7.745868|    0.824065|    0.012006|
|         607|   -4.537017|   -7.756712|    0.824066|    0.012006|
|         608|   -4.622675|   -7.766559|    0.824067|    0.012006|
|         609|   -4.712005|   -7.775667|    0.824068|    0.012007|
|         610|   -4.788939|   -7.784160|    0.824069|    0.012007|
|         611|   -4.845361|   -7.792017|    0.824069|    0.012007|
|         612|   -4.882752|   -7.799226|    0.824070|    0.012008|
|         613|   -4.904683|   -7.805926|    0.824071|    0.012008|
|         614|   -4.914777|   -7.812355|    0.824072|    0.012009|
|         615|   -4.918709|   -7.818702|    0.824072|    0.012009|
|         616|   -4.922986|   -7.825011|    0.824073|    0.012009|
|         617|   -4.932012|   -7.831228|    0.824074|    0.012010|
|         618|   -4.946842|   -7.837313|    0.824075|    0.012010|
|         619|   -4.965751|   -7.843283|    0.824075|    0.012011|
|         620|   -4.985718|   -7.849193|    0.824076|    0.012011|
|         621|   -5.004214|   -7.855095|    0.824077|    0.012011|
|         622|   -5.020416|   -7.860967|    0.824077|    0.012012|
|         623|   -5.035090|   -7.866747|    0.824078|    0.012012|
|         624|   -5.049490|   -7.872331|    0.824079|    0.012012|
|         625|   -5.064347|   -7.877616|    0.824079|    0.012013|
|         626|   -5.079561|   -7.882517|    0.824080|    0.012013|
|         627|   -5.094461|   -7.886975|    0.824080|    0.012013|
|         628|   -5.108217|   -7.890958|    0.824081|    0.012014|
|         629|   -5.120149|   -7.894447|    0.824081|    0.012014|
|         630|   -5.129868|   -7.897440|    0.824081|    0.012014|
|         631|   -5.137329|   -7.899938|    0.824082|    0.012014|
|         632|   -5.142854|   -7.901945|    0.824082|    0.012015|
|         633|   -5.147101|   -7.903471|    0.824082|    0.012015|
|         634|   -5.150924|   -7.904517|    0.824082|    0.012015|
|         635|   -5.155183|   -7.905077|    0.824083|    0.012015|
|         636|   -5.160562|   -7.905141|    0.824083|    0.012015|
|         637|   -5.167451|   -7.904708|    0.824083|    0.012015|
|         638|   -5.175916|   -7.903779|    0.824083|    0.012015|
|         639|   -5.185710|   -7.902366|    0.824083|    0.012015|
|         640|   -5.196323|   -7.900489|    0.824082|    0.012015|
|         641|   -5.207072|   -7.898182|    0.824082|    0.012015|
|         642|   -5.217241|   -7.895494|    0.824082|    0.012015|
|         643|   -5.226252|   -7.892473|    0.824081|    0.012015|
|         644|   -5.233833|   -7.889184|    0.824081|    0.012015|
|         645|   -5.240088|   -7.885696|    0.824080|    0.012015|
|         646|   -5.245460|   -7.882076|    0.824080|    0.012015|
|         647|   -5.250577|   -7.878387|    0.824079|    0.012015|
|         648|   -5.256080|   -7.874685|    0.824078|    0.012015|
|         649|   -5.262472|   -7.871022|    0.824077|    0.012015|
|         650|   -5.270036|   -7.867445|    0.824076|    0.012014|
|         651|   -5.278821|   -7.863995|    0.824075|    0.012014|
|         652|   -5.288675|   -7.860712|    0.824074|    0.012014|
|         653|   -5.299306|   -7.857638|    0.824072|    0.012013|
|         654|   -5.310359|   -7.854809|    0.824071|    0.012013|
|         655|   -5.321502|   -7.852258|    0.824069|    0.012013|
|         656|   -5.332482|   -7.850019|    0.824068|    0.012012|
|         657|   -5.343167|   -7.848126|    0.824066|    0.012012|
|         658|   -5.353548|   -7.846614|    0.824064|    0.012012|
|         659|   -5.363712|   -7.845517|    0.824062|    0.012011|
|         660|   -5.373803|   -7.844875|    0.824060|    0.012011|
|         661|   -5.383968|   -7.844725|    0.824058|    0.012010|
|         662|   -5.394329|   -7.845097|    0.824056|    0.012010|
|         663|   -5.404959|   -7.846018|    0.824053|    0.012009|
|         664|   -5.415874|   -7.847507|    0.824051|    0.012009|
|         665|   -5.427049|   -7.849577|    0.824049|    0.012008|
|         666|   -5.438425|   -7.852228|    0.824046|    0.012008|
|         667|   -5.449926|   -7.855449|    0.824044|    0.012007|
|         668|   -5.461477|   -7.859214|    0.824041|    0.012007|
|         669|   -5.473003|   -7.863479|    0.824039|    0.012006|
|         670|   -5.484440|   -7.868183|    0.824037|    0.012006|
|         671|   -5.495727|   -7.873242|    0.824034|    0.012005|
|         672|   -5.506805|   -7.878547|    0.824032|    0.012005|
|         673|   -5.517611|   -7.883967|    0.824030|    0.012004|
|         674|   -5.528075|   -7.889347|    0.824028|    0.012004|
|         675|   -5.538121|   -7.894513|    0.824026|    0.012003|
|         676|   -5.547671|   -7.899279|    0.824024|    0.012003|
|         677|   -5.556646|   -7.903458|    0.824023|    0.012002|
|         678|   -5.564975|   -7.906871|    0.824021|    0.012002|
|         679|   -5.572598|   -7.909360|    0.824020|    0.012001|
|         680|   -5.579475|   -7.910805|    0.824019|    0.012001|
|         681|   -5.585584|   -7.911133|    0.824018|    0.012001|
|         682|   -5.590927|   -7.910328|    0.824017|    0.012000|
|         683|   -5.595527|   -7.908434|    0.824017|    0.012000|
|         684|   -5.599429|   -7.905552|    0.824016|    0.012000|
|         685|   -5.602694|   -7.901832|    0.824016|    0.011999|
|         686|   -5.605399|   -7.897459|    0.824016|    0.011999|
|         687|   -5.607631|   -7.892644|    0.824017|    0.011999|
|         688|   -5.609484|   -7.887604|    0.824017|    0.011999|
|         689|   -5.611056|   -7.882556|    0.824018|    0.011998|
|         690|   -5.612443|   -7.877705|    0.824018|    0.011998|
|         691|   -5.613739|   -7.873237|    0.824019|    0.011998|
|         692|   -5.615033|   -7.869317|    0.824021|    0.011998|
|         693|   -5.616404|   -7.866086|    0.824022|    0.011998|
|         694|   -5.617924|   -7.863659|    0.824023|    0.011998|
|         695|   -5.619657|   -7.862131|    0.824025|    0.011998|
|         696|   -5.621655|   -7.861574|    0.824026|    0.011998|
|         697|   -5.623961|   -7.862041|    0.824028|    0.011998|
|         698|   -5.626610|   -7.863560|    0.824030|    0.011998|
|         699|   -5.629630|   -7.866142|    0.824032|    0.011998|
|         700|   -5.633039|   -7.869782|    0.824034|    0.011998|
|         701|   -5.636849|   -7.874455|    0.824036|    0.011996|
+-----------------------------------------------------------------------+
|Fixed CL Mode                           |Value                         |
+-----------------------------------------------------------------------+
|Current CL                              |0.824036                      |
|Target CL                               |0.824                         |
|Previous AOA                            |2.75971                       |
|Changed AoA by                          |-0.000169346                  |
+-----------------------------------------------------------------------+
+----------------------------------------------------------------+
|  Inner_Iter|    rms[Rho]|     rms[nu]|          CL|          CD|
+----------------------------------------------------------------+
|         702|   -3.964424|   -7.800716|    0.824038|    0.011996|
|         703|   -4.347101|   -7.842124|    0.824040|    0.011996|
|         704|   -4.585951|   -7.860767|    0.824042|    0.011996|
|         705|   -4.661960|   -7.875183|    0.824044|    0.011996|
|         706|   -4.714584|   -7.888426|    0.824047|    0.011997|
|         707|   -4.783168|   -7.901144|    0.824049|    0.011997|
|         708|   -4.867874|   -7.913485|    0.824051|    0.011997|
|         709|   -4.956596|   -7.925483|    0.824053|    0.011997|
|         710|   -5.034132|   -7.937081|    0.824055|    0.011998|
|         711|   -5.092820|   -7.948098|    0.824057|    0.011998|
|         712|   -5.133697|   -7.958329|    0.824059|    0.011998|
|         713|   -5.159451|   -7.967651|    0.824061|    0.011999|
|         714|   -5.172856|   -7.976024|    0.824063|    0.011999|
|         715|   -5.179178|   -7.983391|    0.824064|    0.012000|
|         716|   -5.185076|   -7.989640|    0.824066|    0.012000|
|         717|   -5.195365|   -7.994646|    0.824068|    0.012000|
|         718|   -5.211488|   -7.998343|    0.824069|    0.012001|
|         719|   -5.231997|   -8.000767|    0.824071|    0.012001|
|         720|   -5.254042|   -8.002030|    0.824072|    0.012002|
|         721|   -5.275178|   -8.002271|    0.824073|    0.012002|
|         722|   -5.294611|   -8.001623|    0.824075|    0.012002|
|         723|   -5.313118|   -8.000205|    0.824076|    0.012003|
|         724|   -5.331934|   -7.998129|    0.824076|    0.012003|
|         725|   -5.351684|   -7.995516|    0.824077|    0.012004|
|         726|   -5.372023|   -7.992502|    0.824078|    0.012004|
|         727|   -5.391888|   -7.989235|    0.824079|    0.012005|
|         728|   -5.409997|   -7.985865|    0.824079|    0.012005|
|         729|   -5.425283|   -7.982533|    0.824080|    0.012006|
|         730|   -5.437152|   -7.979364|    0.824080|    0.012006|
|         731|   -5.445587|   -7.976462|    0.824080|    0.012006|
|         732|   -5.451161|   -7.973912|    0.824080|    0.012007|
|         733|   -5.454903|   -7.971771|    0.824080|    0.012007|
|         734|   -5.458055|   -7.970072|    0.824080|    0.012008|
|         735|   -5.461776|   -7.968824|    0.824080|    0.012008|
|         736|   -5.466910|   -7.968020|    0.824079|    0.012008|
|         737|   -5.473879|   -7.967637|    0.824079|    0.012009|
|         738|   -5.482663|   -7.967648|    0.824078|    0.012009|
|         739|   -5.492837|   -7.968019|    0.824078|    0.012010|
|         740|   -5.503654|   -7.968715|    0.824077|    0.012010|
|         741|   -5.514166|   -7.969699|    0.824076|    0.012010|
|         742|   -5.523424|   -7.970937|    0.824076|    0.012010|
|         743|   -5.530723|   -7.972400|    0.824075|    0.012011|
|         744|   -5.535811|   -7.974059|    0.824074|    0.012011|
|         745|   -5.538963|   -7.975891|    0.824073|    0.012011|
|         746|   -5.540874|   -7.977872|    0.824072|    0.012011|
|         747|   -5.542423|   -7.979981|    0.824071|    0.012012|
|         748|   -5.544436|   -7.982192|    0.824070|    0.012012|
|         749|   -5.547517|   -7.984480|    0.824069|    0.012012|
|         750|   -5.551973|   -7.986814|    0.824067|    0.012012|
|         751|   -5.557826|   -7.989162|    0.824066|    0.012012|
|         752|   -5.564873|   -7.991491|    0.824065|    0.012012|
|         753|   -5.572770|   -7.993757|    0.824064|    0.012013|
|         754|   -5.581133|   -7.995925|    0.824062|    0.012013|
|         755|   -5.589620|   -7.997948|    0.824061|    0.012013|
|         756|   -5.598000|   -7.999777|    0.824060|    0.012013|
|         757|   -5.606183|   -8.001365|    0.824058|    0.012013|
|         758|   -5.614213|   -8.002668|    0.824057|    0.012013|
|         759|   -5.622233|   -8.003648|    0.824055|    0.012013|
|         760|   -5.630431|   -8.004276|    0.824054|    0.012013|
|         761|   -5.638997|   -8.004532|    0.824052|    0.012013|
|         762|   -5.648084|   -8.004405|    0.824051|    0.012012|
|         763|   -5.657791|   -8.003900|    0.824049|    0.012012|
|         764|   -5.668164|   -8.003034|    0.824048|    0.012012|
|         765|   -5.679205|   -8.001838|    0.824046|    0.012012|
|         766|   -5.690886|   -8.000353|    0.824045|    0.012012|
|         767|   -5.703165|   -7.998636|    0.824043|    0.012012|
|         768|   -5.715999|   -7.996750|    0.824042|    0.012012|
|         769|   -5.729348|   -7.994761|    0.824040|    0.012011|
|         770|   -5.743179|   -7.992740|    0.824039|    0.012011|
|         771|   -5.757457|   -7.990752|    0.824037|    0.012011|
|         772|   -5.772144|   -7.988859|    0.824036|    0.012011|
|         773|   -5.787187|   -7.987116|    0.824034|    0.012010|
|         774|   -5.802512|   -7.985567|    0.824033|    0.012010|
|         775|   -5.818024|   -7.984245|    0.824032|    0.012010|
|         776|   -5.833595|   -7.983167|    0.824030|    0.012009|
|         777|   -5.849077|   -7.982337|    0.824029|    0.012009|
|         778|   -5.864293|   -7.981746|    0.824028|    0.012009|
|         779|   -5.879049|   -7.981368|    0.824027|    0.012009|
|         780|   -5.893142|   -7.981164|    0.824026|    0.012008|
|         781|   -5.906364|   -7.981086|    0.824025|    0.012008|
|         782|   -5.918517|   -7.981075|    0.824025|    0.012008|
|         783|   -5.929424|   -7.981068|    0.824024|    0.012007|
|         784|   -5.938943|   -7.980997|    0.824023|    0.012007|
|         785|   -5.946974|   -7.980800|    0.824023|    0.012006|
|         786|   -5.953469|   -7.980420|    0.824023|    0.012006|
|         787|   -5.958436|   -7.979812|    0.824022|    0.012006|
|         788|   -5.961938|   -7.978942|    0.824022|    0.012005|
|         789|   -5.964085|   -7.977798|    0.824022|    0.012005|
|         790|   -5.965022|   -7.976385|    0.824022|    0.012005|
|         791|   -5.964921|   -7.974726|    0.824023|    0.012004|
|         792|   -5.963968|   -7.972861|    0.824023|    0.012004|
|         793|   -5.962348|   -7.970847|    0.824023|    0.012004|
|         794|   -5.960239|   -7.968752|    0.824024|    0.012004|
|         795|   -5.957804|   -7.966653|    0.824025|    0.012003|
|         796|   -5.955190|   -7.964632|    0.824025|    0.012003|
|         797|   -5.952521|   -7.962770|    0.824026|    0.012003|
|         798|   -5.949902|   -7.961143|    0.824027|    0.012002|
|         799|   -5.947420|   -7.959824|    0.824028|    0.012002|
|         800|   -5.945141|   -7.958873|    0.824029|    0.012002|
|         801|   -5.943120|   -7.958337|    0.824030|    0.012000|
+-----------------------------------------------------------------------+
|Fixed CL Mode                           |Value                         |
+-----------------------------------------------------------------------+
|Current CL                              |0.82403                       |
|Target CL                               |0.824                         |
|Previous AOA                            |2.75954                       |
|Changed AoA by                          |-0.000143351                  |
+-----------------------------------------------------------------------+
+----------------------------------------------------------------+
|  Inner_Iter|    rms[Rho]|     rms[nu]|          CL|          CD|
+----------------------------------------------------------------+
|         802|   -4.036894|   -7.877657|    0.824031|    0.011999|
|         803|   -4.419927|   -7.914559|    0.824032|    0.011999|
|         804|   -4.659519|   -7.927273|    0.824033|    0.011999|
|         805|   -4.735885|   -7.935227|    0.824034|    0.011999|
|         806|   -4.788806|   -7.941716|    0.824036|    0.011999|
|         807|   -4.857945|   -7.947525|    0.824037|    0.011998|
|         808|   -4.943646|   -7.952912|    0.824038|    0.011998|
|         809|   -5.033876|   -7.958017|    0.824039|    0.011998|
|         810|   -5.113197|   -7.962887|    0.824041|    0.011998|
|         811|   -5.173462|   -7.967475|    0.824042|    0.011998|
|         812|   -5.215352|   -7.971721|    0.824043|    0.011998|
|         813|   -5.241422|   -7.975626|    0.824044|    0.011998|
|         814|   -5.254529|   -7.979236|    0.824046|    0.011998|
|         815|   -5.260244|   -7.982568|    0.824047|    0.011998|
|         816|   -5.265558|   -7.985579|    0.824048|    0.011998|
|         817|   -5.275457|   -7.988202|    0.824049|    0.011998|
|         818|   -5.291387|   -7.990391|    0.824050|    0.011998|
|         819|   -5.311796|   -7.992152|    0.824051|    0.011998|
|         820|   -5.333684|   -7.993531|    0.824052|    0.011998|
|         821|   -5.354476|   -7.994575|    0.824053|    0.011998|
|         822|   -5.373332|   -7.995318|    0.824054|    0.011999|
|         823|   -5.391063|   -7.995786|    0.824055|    0.011999|
|         824|   -5.408971|   -7.995991|    0.824056|    0.011999|
|         825|   -5.427743|   -7.995956|    0.824056|    0.011999|
|         826|   -5.447087|   -7.995716|    0.824057|    0.011999|
|         827|   -5.466001|   -7.995321|    0.824058|    0.011999|
|         828|   -5.483276|   -7.994828|    0.824058|    0.012000|
|         829|   -5.497915|   -7.994298|    0.824058|    0.012000|
|         830|   -5.509362|   -7.993790|    0.824059|    0.012000|
|         831|   -5.517597|   -7.993354|    0.824059|    0.012000|
|         832|   -5.523150|   -7.993033|    0.824059|    0.012001|
|         833|   -5.526991|   -7.992857|    0.824060|    0.012001|
|         834|   -5.530306|   -7.992838|    0.824060|    0.012001|
|         835|   -5.534218|   -7.992974|    0.824060|    0.012001|
|         836|   -5.539561|   -7.993254|    0.824060|    0.012002|
|         837|   -5.546765|   -7.993654|    0.824060|    0.012002|
|         838|   -5.555829|   -7.994144|    0.824060|    0.012002|
|         839|   -5.566353|   -7.994693|    0.824059|    0.012003|
|         840|   -5.577607|   -7.995268|    0.824059|    0.012003|
|         841|   -5.588647|   -7.995840|    0.824059|    0.012003|
|         842|   -5.598510|   -7.996381|    0.824059|    0.012004|
|         843|   -5.606455|   -7.996871|    0.824058|    0.012004|
|         844|   -5.612184|   -7.997298|    0.824058|    0.012004|
|         845|   -5.615933|   -7.997654|    0.824057|    0.012004|
|         846|   -5.618367|   -7.997938|    0.824057|    0.012005|
|         847|   -5.620360|   -7.998151|    0.824056|    0.012005|
|         848|   -5.622744|   -7.998301|    0.824056|    0.012005|
|         849|   -5.626130|   -7.998393|    0.824055|    0.012006|
|         850|   -5.630835|   -7.998437|    0.824055|    0.012006|
|         851|   -5.636878|   -7.998440|    0.824054|    0.012006|
|         852|   -5.644045|   -7.998412|    0.824053|    0.012006|
|         853|   -5.651974|   -7.998357|    0.824052|    0.012007|
|         854|   -5.660254|   -7.998291|    0.824051|    0.012007|
|         855|   -5.668516|   -7.998212|    0.824051|    0.012007|
|         856|   -5.676507|   -7.998128|    0.824050|    0.012007|
|         857|   -5.684118|   -7.998041|    0.824049|    0.012008|
|         858|   -5.691380|   -7.997957|    0.824048|    0.012008|
|         859|   -5.698426|   -7.997883|    0.824047|    0.012008|
|         860|   -5.705439|   -7.997832|    0.824046|    0.012008|
|         861|   -5.712599|   -7.997815|    0.824044|    0.012008|
|         862|   -5.720048|   -7.997849|    0.824043|    0.012009|
|         863|   -5.727872|   -7.997951|    0.824042|    0.012009|
|         864|   -5.736102|   -7.998143|    0.824041|    0.012009|
|         865|   -5.744725|   -7.998449|    0.824040|    0.012009|
|         866|   -5.753698|   -7.998892|    0.824038|    0.012009|
|         867|   -5.762968|   -7.999499|    0.824037|    0.012009|
|         868|   -5.772483|   -8.000294|    0.824036|    0.012009|
|         869|   -5.782198|   -8.001300|    0.824034|    0.012009|
|         870|   -5.792076|   -8.002534|    0.824033|    0.012010|
|         871|   -5.802084|   -8.004007|    0.824032|    0.012010|
|         872|   -5.812191|   -8.005722|    0.824030|    0.012010|
|         873|   -5.822356|   -8.007672|    0.824029|    0.012010|
|         874|   -5.832531|   -8.009840|    0.824028|    0.012010|
|         875|   -5.842655|   -8.012198|    0.824026|    0.012010|
|         876|   -5.852656|   -8.014706|    0.824025|    0.012010|
|         877|   -5.862454|   -8.017314|    0.824024|    0.012010|
|         878|   -5.871966|   -8.019960|    0.824023|    0.012010|
|         879|   -5.881106|   -8.022574|    0.824022|    0.012010|
|         880|   -5.889798|   -8.025082|    0.824021|    0.012010|
|         881|   -5.897970|   -8.027407|    0.824020|    0.012010|
|         882|   -5.905565|   -8.029471|    0.824020|    0.012010|
|         883|   -5.912540|   -8.031205|    0.824019|    0.012010|
|         884|   -5.918868|   -8.032551|    0.824018|    0.012009|
|         885|   -5.924539|   -8.033462|    0.824018|    0.012009|
|         886|   -5.929562|   -8.033913|    0.824017|    0.012009|
|         887|   -5.933962|   -8.033899|    0.824017|    0.012009|
|         888|   -5.937777|   -8.033436|    0.824017|    0.012009|
|         889|   -5.941060|   -8.032562|    0.824017|    0.012009|
|         890|   -5.943870|   -8.031335|    0.824016|    0.012009|
|         891|   -5.946276|   -8.029828|    0.824017|    0.012009|
|         892|   -5.948346|   -8.028126|    0.824017|    0.012009|
|         893|   -5.950150|   -8.026322|    0.824017|    0.012008|
|         894|   -5.951755|   -8.024511|    0.824017|    0.012008|
|         895|   -5.953221|   -8.022788|    0.824017|    0.012008|
|         896|   -5.954604|   -8.021241|    0.824018|    0.012008|
|         897|   -5.955952|   -8.019952|    0.824018|    0.012008|
|         898|   -5.957307|   -8.018989|    0.824019|    0.012008|
|         899|   -5.958700|   -8.018411|    0.824019|    0.012007|
|         900|   -5.960160|   -8.018259|    0.824020|    0.012007|
|         901|   -5.961705|   -8.018563|    0.824021|    0.012006|
+-----------------------------------------------------------------------+
|Fixed CL Mode                           |Value                         |
+-----------------------------------------------------------------------+
|Current CL                              |0.824021                      |
|Target CL                               |0.824                         |
|Previous AOA                            |2.75939                       |
[...]
|        5298|   -6.051517|   -7.932147|    0.824242|    0.012011|
|        5299|   -6.058195|   -7.936052|    0.824242|    0.012010|
|        5300|   -6.064423|   -7.940022|    0.824242|    0.012010|
|        5301|   -6.070168|   -7.944072|    0.824242|    0.012010|
|        5302|   -6.075415|   -7.948210|    0.824242|    0.012010|
|        5303|   -6.080159|   -7.952442|    0.824243|    0.012010|
|        5304|   -6.084410|   -7.956773|    0.824243|    0.012010|
|        5305|   -6.088192|   -7.961201|    0.824243|    0.012010|
|        5306|   -6.091538|   -7.965726|    0.824243|    0.012010|
|        5307|   -6.094491|   -7.970345|    0.824243|    0.012010|
|        5308|   -6.097104|   -7.975053|    0.824243|    0.012010|
|        5309|   -6.099435|   -7.979846|    0.824243|    0.012010|
|        5310|   -6.101543|   -7.984720|    0.824243|    0.012010|
|        5311|   -6.103492|   -7.989670|    0.824244|    0.012010|
|        5312|   -6.105342|   -7.994692|    0.824244|    0.012010|
|        5313|   -6.107155|   -7.999784|    0.824244|    0.012010|
|        5314|   -6.108985|   -8.004943|    0.824244|    0.012010|
|        5315|   -6.110886|   -8.010168|    0.824244|    0.012010|
|        5316|   -6.112903|   -8.015458|    0.824244|    0.012010|
|        5317|   -6.115078|   -8.020814|    0.824245|    0.012010|
|        5318|   -6.117444|   -8.026241|    0.824245|    0.012010|
|        5319|   -6.120031|   -8.031739|    0.824245|    0.012010|
|        5320|   -6.122858|   -8.037312|    0.824245|    0.012010|
|        5321|   -6.125942|   -8.042964|    0.824245|    0.012010|
|        5322|   -6.129290|   -8.048696|    0.824246|    0.012010|
|        5323|   -6.132902|   -8.054512|    0.824246|    0.012010|
|        5324|   -6.136771|   -8.060411|    0.824246|    0.012010|
|        5325|   -6.140886|   -8.066392|    0.824246|    0.012010|
|        5326|   -6.145227|   -8.072455|    0.824246|    0.012010|
|        5327|   -6.149770|   -8.078596|    0.824247|    0.012010|
|        5328|   -6.154484|   -8.084810|    0.824247|    0.012011|
|        5329|   -6.159334|   -8.091093|    0.824247|    0.012011|
|        5330|   -6.164281|   -8.097438|    0.824247|    0.012011|
|        5331|   -6.169281|   -8.103838|    0.824247|    0.012011|
|        5332|   -6.174289|   -8.110287|    0.824248|    0.012011|
|        5333|   -6.179259|   -8.116778|    0.824248|    0.012011|
|        5334|   -6.184142|   -8.123303|    0.824248|    0.012011|
|        5335|   -6.188895|   -8.129856|    0.824248|    0.012011|
|        5336|   -6.193472|   -8.136431|    0.824249|    0.012011|
|        5337|   -6.197833|   -8.143025|    0.824249|    0.012011|
|        5338|   -6.201946|   -8.149632|    0.824249|    0.012011|
|        5339|   -6.205782|   -8.156251|    0.824249|    0.012011|
|        5340|   -6.209324|   -8.162880|    0.824249|    0.012012|
|        5341|   -6.212562|   -8.169519|    0.824250|    0.012012|
|        5342|   -6.215495|   -8.176168|    0.824250|    0.012012|
|        5343|   -6.218131|   -8.182833|    0.824250|    0.012012|
|        5344|   -6.220488|   -8.189516|    0.824250|    0.012012|
|        5345|   -6.222590|   -8.196224|    0.824251|    0.012012|
|        5346|   -6.224472|   -8.202965|    0.824251|    0.012012|
|        5347|   -6.226170|   -8.209744|    0.824251|    0.012012|
|        5348|   -6.227727|   -8.216571|    0.824251|    0.012012|
|        5349|   -6.229190|   -8.223454|    0.824251|    0.012012|
|        5350|   -6.230604|   -8.230401|    0.824252|    0.012012|
|        5351|   -6.232019|   -8.237419|    0.824252|    0.012012|
|        5352|   -6.233480|   -8.244516|    0.824252|    0.012012|
|        5353|   -6.235032|   -8.251699|    0.824252|    0.012012|
|        5354|   -6.236717|   -8.258973|    0.824252|    0.012012|
|        5355|   -6.238574|   -8.266343|    0.824252|    0.012013|
|        5356|   -6.240639|   -8.273814|    0.824253|    0.012013|
|        5357|   -6.242941|   -8.281388|    0.824253|    0.012013|
|        5358|   -6.245507|   -8.289068|    0.824253|    0.012013|
|        5359|   -6.248357|   -8.296854|    0.824253|    0.012013|
|        5360|   -6.251510|   -8.304746|    0.824253|    0.012013|
|        5361|   -6.254976|   -8.312743|    0.824253|    0.012013|
|        5362|   -6.258762|   -8.320842|    0.824253|    0.012013|
|        5363|   -6.262869|   -8.329038|    0.824254|    0.012013|
|        5364|   -6.267293|   -8.337324|    0.824254|    0.012013|
|        5365|   -6.272027|   -8.345694|    0.824254|    0.012013|
|        5366|   -6.277055|   -8.354138|    0.824254|    0.012013|
|        5367|   -6.282359|   -8.362647|    0.824254|    0.012013|
|        5368|   -6.287916|   -8.371210|    0.824254|    0.012013|
|        5369|   -6.293696|   -8.379813|    0.824254|    0.012013|
|        5370|   -6.299666|   -8.388443|    0.824254|    0.012013|
|        5371|   -6.305788|   -8.397087|    0.824254|    0.012013|
|        5372|   -6.312020|   -8.405728|    0.824254|    0.012013|
|        5373|   -6.318318|   -8.414350|    0.824254|    0.012013|
|        5374|   -6.324632|   -8.422936|    0.824255|    0.012013|
|        5375|   -6.330912|   -8.431468|    0.824255|    0.012013|
|        5376|   -6.337108|   -8.439929|    0.824255|    0.012013|
|        5377|   -6.343167|   -8.448300|    0.824255|    0.012013|
|        5378|   -6.349040|   -8.456562|    0.824255|    0.012013|
|        5379|   -6.354679|   -8.464697|    0.824255|    0.012012|
|        5380|   -6.360040|   -8.472685|    0.824255|    0.012012|
|        5381|   -6.365085|   -8.480507|    0.824255|    0.012012|
|        5382|   -6.369780|   -8.488143|    0.824255|    0.012012|
|        5383|   -6.374100|   -8.495573|    0.824255|    0.012012|
|        5384|   -6.378027|   -8.502775|    0.824256|    0.012012|
|        5385|   -6.381550|   -8.509729|    0.824256|    0.012012|
|        5386|   -6.384667|   -8.516410|    0.824256|    0.012012|
|        5387|   -6.387382|   -8.522795|    0.824256|    0.012012|
|        5388|   -6.389707|   -8.528859|    0.824256|    0.012012|
|        5389|   -6.391660|   -8.534575|    0.824256|    0.012012|
|        5390|   -6.393263|   -8.539917|    0.824256|    0.012012|
|        5391|   -6.394541|   -8.544855|    0.824257|    0.012012|
|        5392|   -6.395522|   -8.549362|    0.824257|    0.012012|
|        5393|   -6.396235|   -8.553409|    0.824257|    0.012011|
|        5394|   -6.396708|   -8.556971|    0.824257|    0.012011|
|        5395|   -6.396970|   -8.560023|    0.824257|    0.012011|
|        5396|   -6.397048|   -8.562541|    0.824258|    0.012011|
|        5397|   -6.396964|   -8.564510|    0.824258|    0.012011|
|        5398|   -6.396743|   -8.565916|    0.824258|    0.012011|
|        5399|   -6.396402|   -8.566753|    0.824258|    0.012011|
|        5400|   -6.395958|   -8.567023|    0.824258|    0.012011|
|        5401|   -6.395425|   -8.566734|    0.824259|    0.012011|
|        5402|   -6.394814|   -8.565902|    0.824259|    0.012011|
|        5403|   -6.394135|   -8.564553|    0.824259|    0.012010|
|        5404|   -6.393394|   -8.562717|    0.824259|    0.012010|
|        5405|   -6.392598|   -8.560431|    0.824260|    0.012010|
|        5406|   -6.391750|   -8.557737|    0.824260|    0.012010|
|        5407|   -6.390855|   -8.554687|    0.824260|    0.012010|
|        5408|   -6.389915|   -8.551329|    0.824260|    0.012010|
|        5409|   -6.388932|   -8.547719|    0.824261|    0.012010|
|        5410|   -6.387909|   -8.543908|    0.824261|    0.012010|
|        5411|   -6.386848|   -8.539948|    0.824261|    0.012010|
|        5412|   -6.385751|   -8.535889|    0.824261|    0.012010|
|        5413|   -6.384622|   -8.531778|    0.824261|    0.012010|
|        5414|   -6.383464|   -8.527657|    0.824262|    0.012009|
|        5415|   -6.382279|   -8.523567|    0.824262|    0.012009|
|        5416|   -6.381074|   -8.519541|    0.824262|    0.012009|
|        5417|   -6.379851|   -8.515609|    0.824262|    0.012009|
|        5418|   -6.378618|   -8.511796|    0.824263|    0.012009|
|        5419|   -6.377379|   -8.508123|    0.824263|    0.012009|
|        5420|   -6.376142|   -8.504606|    0.824263|    0.012009|
|        5421|   -6.374914|   -8.501257|    0.824263|    0.012009|
|        5422|   -6.373703|   -8.498085|    0.824263|    0.012009|
|        5423|   -6.372519|   -8.495094|    0.824264|    0.012009|
|        5424|   -6.371371|   -8.492288|    0.824264|    0.012009|
|        5425|   -6.370269|   -8.489664|    0.824264|    0.012009|
|        5426|   -6.369226|   -8.487222|    0.824264|    0.012009|
|        5427|   -6.368253|   -8.484956|    0.824264|    0.012009|
|        5428|   -6.367364|   -8.482862|    0.824265|    0.012009|
|        5429|   -6.366573|   -8.480934|    0.824265|    0.012009|
|        5430|   -6.365894|   -8.479163|    0.824265|    0.012009|
|        5431|   -6.365343|   -8.477544|    0.824265|    0.012009|
|        5432|   -6.364935|   -8.476068|    0.824265|    0.012009|
|        5433|   -6.364687|   -8.474728|    0.824266|    0.012009|
|        5434|   -6.364614|   -8.473517|    0.824266|    0.012009|
|        5435|   -6.364731|   -8.472429|    0.824266|    0.012009|
|        5436|   -6.365056|   -8.471459|    0.824266|    0.012009|
|        5437|   -6.365602|   -8.470600|    0.824266|    0.012009|
|        5438|   -6.366385|   -8.469847|    0.824266|    0.012009|
|        5439|   -6.367416|   -8.469198|    0.824267|    0.012009|
|        5440|   -6.368709|   -8.468646|    0.824267|    0.012009|
|        5441|   -6.370273|   -8.468190|    0.824267|    0.012009|
|        5442|   -6.372118|   -8.467824|    0.824267|    0.012009|
|        5443|   -6.374250|   -8.467548|    0.824267|    0.012009|
|        5444|   -6.376673|   -8.467356|    0.824267|    0.012009|
|        5445|   -6.379389|   -8.467246|    0.824267|    0.012009|
|        5446|   -6.382399|   -8.467214|    0.824268|    0.012009|
|        5447|   -6.385699|   -8.467258|    0.824268|    0.012009|
|        5448|   -6.389282|   -8.467374|    0.824268|    0.012009|
|        5449|   -6.393139|   -8.467558|    0.824268|    0.012009|
|        5450|   -6.397257|   -8.467805|    0.824268|    0.012009|
|        5451|   -6.401621|   -8.468112|    0.824268|    0.012009|
|        5452|   -6.406212|   -8.468475|    0.824268|    0.012010|
|        5453|   -6.411005|   -8.468890|    0.824268|    0.012010|
|        5454|   -6.415975|   -8.469352|    0.824269|    0.012010|
|        5455|   -6.421093|   -8.469857|    0.824269|    0.012010|
|        5456|   -6.426324|   -8.470401|    0.824269|    0.012010|
|        5457|   -6.431634|   -8.470978|    0.824269|    0.012010|
|        5458|   -6.436983|   -8.471585|    0.824269|    0.012010|
|        5459|   -6.442330|   -8.472218|    0.824269|    0.012010|
|        5460|   -6.447633|   -8.472874|    0.824269|    0.012010|
|        5461|   -6.452848|   -8.473549|    0.824269|    0.012010|
|        5462|   -6.457930|   -8.474240|    0.824269|    0.012010|
|        5463|   -6.462836|   -8.474946|    0.824269|    0.012010|
|        5464|   -6.467523|   -8.475663|    0.824269|    0.012011|
|        5465|   -6.471951|   -8.476391|    0.824269|    0.012011|
|        5466|   -6.476083|   -8.477129|    0.824269|    0.012011|
|        5467|   -6.479886|   -8.477873|    0.824269|    0.012011|
|        5468|   -6.483332|   -8.478625|    0.824269|    0.012011|
|        5469|   -6.486399|   -8.479383|    0.824270|    0.012011|
|        5470|   -6.489072|   -8.480146|    0.824270|    0.012011|
|        5471|   -6.491342|   -8.480915|    0.824270|    0.012011|
|        5472|   -6.493206|   -8.481689|    0.824270|    0.012011|
|        5473|   -6.494669|   -8.482466|    0.824270|    0.012011|
|        5474|   -6.495743|   -8.483246|    0.824270|    0.012011|
|        5475|   -6.496443|   -8.484029|    0.824270|    0.012011|
|        5476|   -6.496793|   -8.484812|    0.824270|    0.012011|
|        5477|   -6.496819|   -8.485595|    0.824270|    0.012012|
|        5478|   -6.496551|   -8.486376|    0.824270|    0.012012|
|        5479|   -6.496024|   -8.487152|    0.824270|    0.012012|
|        5480|   -6.495270|   -8.487921|    0.824270|    0.012012|
|        5481|   -6.494328|   -8.488683|    0.824270|    0.012012|
|        5482|   -6.493233|   -8.489432|    0.824270|    0.012012|
|        5483|   -6.492021|   -8.490169|    0.824270|    0.012012|
|        5484|   -6.490727|   -8.490889|    0.824270|    0.012012|
|        5485|   -6.489383|   -8.491590|    0.824270|    0.012012|
|        5486|   -6.488023|   -8.492269|    0.824269|    0.012012|
|        5487|   -6.486675|   -8.492925|    0.824269|    0.012012|
|        5488|   -6.485366|   -8.493555|    0.824269|    0.012012|
|        5489|   -6.484121|   -8.494157|    0.824269|    0.012012|
|        5490|   -6.482961|   -8.494730|    0.824269|    0.012012|
|        5491|   -6.481906|   -8.495270|    0.824269|    0.012012|
|        5492|   -6.480974|   -8.495779|    0.824269|    0.012012|
|        5493|   -6.480178|   -8.496255|    0.824269|    0.012012|
|        5494|   -6.479531|   -8.496697|    0.824269|    0.012012|
|        5495|   -6.479044|   -8.497106|    0.824269|    0.012012|
|        5496|   -6.478725|   -8.497483|    0.824269|    0.012012|
|        5497|   -6.478581|   -8.497827|    0.824269|    0.012012|
|        5498|   -6.478616|   -8.498140|    0.824269|    0.012012|
|        5499|   -6.478835|   -8.498423|    0.824270|    0.011998|
+-----------------------------------------------------------------------+
|Fixed CL Mode (Finite Difference)       |Value                         |
+-----------------------------------------------------------------------+
|Delta CL / Delta AoA                    |0.269731                      |
|Delta CD / Delta CL                     |0.0224213                     |
|Delta CMz / Delta CL                    |0.0311993                     |
+-----------------------------------------------------------------------+
Writing Flow Meta-Data file: flow.meta

----------------------------- Solver Exit -------------------------------

Maximum number of iterations reached (ITER = 5500) before convergence.
+-----------------------------------------------------------------------+
|      Convergence Field     |     Value    |   Criterion  |  Converged |
+-----------------------------------------------------------------------+
|                    rms[Rho]|      -6.47884|         < -12|          No|
+-----------------------------------------------------------------------+
-------------------------------------------------------------------------

--------------------------- Finalizing Solver ---------------------------
Deleted CNumerics container.
Deleted CIntegration container.
Deleted CSolver container.
Deleted CIteration container.
Deleted CInterface container.
Deleted CGeometry container.
Deleted CFreeFormDefBox class.
Deleted CSurfaceMovement class.
Deleted CVolumetricMovement class.
Deleted CConfig container.
Deleted nInst container.
Deleted COutput class.
-------------------------------------------------------------------------

------------------------- Exit Success (SU2_CFD) ------------------------


-------------------------------------------------------------------------
|    ___ _   _ ___                                                      |
|   / __| | | |_  )   Release 8.0.0 "Harrier"                           |
|   \__ \ |_| |/ /                                                      |
|   |___/\___//___|   Suite (Solution Exporting Code)                   |
|                                                                       |
-------------------------------------------------------------------------
| SU2 Project Website: https://su2code.github.io                        |
|                                                                       |
| The SU2 Project is maintained by the SU2 Foundation                   |
| (http://su2foundation.org)                                            |
-------------------------------------------------------------------------
| Copyright 2012-2023, SU2 Contributors                                 |
|                                                                       |
| SU2 is free software; you can redistribute it and/or                  |
| modify it under the terms of the GNU Lesser General Public            |
| License as published by the Free Software Foundation; either          |
| version 2.1 of the License, or (at your option) any later version.    |
|                                                                       |
| SU2 is distributed in the hope that it will be useful,                |
| but WITHOUT ANY WARRANTY; without even the implied warranty of        |
| MERCHANTABILITY or FITNESS FOR A PARTICULAR PURPOSE. See the GNU      |
| Lesser General Public License for more details.                       |
|                                                                       |
| You should have received a copy of the GNU Lesser General Public      |
| License along with SU2. If not, see <http://www.gnu.org/licenses/>.   |
-------------------------------------------------------------------------

----------------- Physical Case Definition ( Zone 0 ) -------------------
Input mesh file name: mesh_RAE2822_turb_deform.su2

-------------------- Output Information ( Zone 0 ) ----------------------
The tabular file format is CSV (.csv).
Flow variables file name: flow.

------------- Config File Boundary Information ( Zone 0 ) ---------------
+-----------------------------------------------------------------------+
|                        Marker Type|                        Marker Name|
+-----------------------------------------------------------------------+
|                          Far-field|                           FARFIELD|
+-----------------------------------------------------------------------+
|                     Heat flux wall|                            AIRFOIL|
+-----------------------------------------------------------------------+
Two dimensional problem.
13937 grid points before partitioning.
22842 volume elements before partitioning.
2 surface markers.
192 boundary elements in index 0 (Marker = AIRFOIL).
40 boundary elements in index 1 (Marker = FARFIELD).
Executing the partitioning functions.
Building the graph adjacency structure.
Calling ParMETIS... graph partitioning complete (831 edge cuts).
Distributing ParMETIS coloring.
Rebalancing vertices.
Rebalancing volume element connectivity.
Rebalancing markers and surface elements.
14875 vertices including ghost points. 
23674 interior elements including halo cells. 
18780 triangles.
4894 quadrilaterals.
Establishing MPI communication patterns.
Identify vertices.
Storing a mapping from global to local point index.

------------------------- Solution Postprocessing -----------------------
Reading and storing the solution from restart_flow.
Volume output fields: COORDINATES, SOLUTION
  Info: Ignoring the following screen output fields:
  RMS_DENSITY, RMS_NU_TILDE, LIFT, DRAG
Screen output fields: INNER_ITER
  Info: Ignoring the following history output groups:
  RMS_RES, AERO_COEFF
History output group(s): ITER
Warning: No (valid) fields chosen for convergence monitoring. Convergence monitoring inactive.
Warning: No (valid) fields chosen for time convergence monitoring. Time convergence monitoring inactive.
|Paraview                           |flow.vtu                           |
|Paraview surface                   |surface_flow.vtu                   |
|CSV file                           |surface_flow.csv                   |

------------------------- Finalize Solver -------------------------
Deleted CGeometry container.
Deleted CSolver class.
Deleted CConfig container.
Deleted COutput class.

Completed in 0.020327 seconds on 6 cores.

------------------------- Exit Success (SU2_SOL) ------------------------

