
-------------------------------------------------------------------------
|    ___ _   _ ___                                                      |
|   / __| | | |_  )   Release 8.0.0 "Harrier"                           |
|   \__ \ |_| |/ /                                                      |
|   |___/\___//___|   Suite (Computational Fluid Dynamics Code)         |
|                                                                       |
-------------------------------------------------------------------------
| SU2 Project Website: https://su2code.github.io                        |
|                                                                       |
| The SU2 Project is maintained by the SU2 Foundation                   |
| (http://su2foundation.org)                                            |
-------------------------------------------------------------------------
| Copyright 2012-2023, SU2 Contributors                                 |
|                                                                       |
| SU2 is free software; you can redistribute it and/or                  |
| modify it under the terms of the GNU Lesser General Public            |
| License as published by the Free Software Foundation; either          |
| version 2.1 of the License, or (at your option) any later version.    |
|                                                                       |
| SU2 is distributed in the hope that it will be useful,                |
| but WITHOUT ANY WARRANTY; without even the implied warranty of        |
| MERCHANTABILITY or FITNESS FOR A PARTICULAR PURPOSE. See the GNU      |
| Lesser General Public License for more details.                       |
|                                                                       |
| You should have received a copy of the GNU Lesser General Public      |
| License along with SU2. If not, see <http://www.gnu.org/licenses/>.   |
-------------------------------------------------------------------------

Parsing config file for zone 0

----------------- Physical Case Definition ( Zone 0 ) -------------------
Compressible RANS equations.
Turbulence model: Spalart-Allmaras-noft2
Hybrid RANS/LES: No Hybrid RANS/LES
Mach number: 0.734.
Angle of attack (AoA): 2.31 deg, and angle of sideslip (AoS): 0 deg.
Reynolds number: 6.5e+06. Reference length 1.
Fixed CL mode, target value: 0.824.
Reading and writing binary SU2 native restart files.
Read flow solution from: solution_flow.dat.
Dimensional simulation.
The reference area is 1 m^2.
The semi-span will be computed using the max y(3D) value.
The reference length is 1 m.
Reference origin for moment evaluation is (0.25, 0, 0).
Surface(s) where the force coefficients are evaluated: AIRFOIL.

Surface(s) plotted in the output file: AIRFOIL.
Surface(s) affected by the design variables: AIRFOIL.
Input mesh file name: mesh_RAE2822_turb_deform.su2

--------------- Space Numerical Integration ( Zone 0 ) ------------------
Jameson-Schmidt-Turkel scheme (2nd order in space) for the flow inviscid terms.
JST viscous coefficients (2nd & 4th): 0.5, 0.02.
The method includes a grid stretching correction (p = 0.3).
Scalar upwind solver for the turbulence model.
First order integration in space.
Average of gradients with correction (viscous flow terms).
Average of gradients with correction (viscous turbulence terms).
Gradient for viscous and source terms: inverse-distance weighted Least-Squares.

--------------- Time Numerical Integration  ( Zone 0 ) ------------------
Local time stepping (steady state simulation).
Euler implicit method for the flow equations.
FGMRES is used for solving the linear system.
Using a ILU(0) preconditioning.
Convergence criteria of the linear solver: 1e-06.
Max number of linear iterations: 10.
No CFL adaptation.
Courant-Friedrichs-Lewy number:       10
Euler implicit time integration for the turbulence model.

------------------ Convergence Criteria  ( Zone 0 ) ---------------------
Maximum number of solver subiterations: 5500.
Begin convergence monitoring at iteration 10.
Residual minimum value: 1e-12.
Cauchy series min. value: 1e-06.
Number of Cauchy elements: 100.
Begin windowed time average at iteration 0.

-------------------- Output Information ( Zone 0 ) ----------------------
File writing frequency: 
+------------------------------------+
|                     File| Frequency|
+------------------------------------+
|                  RESTART|     10000|
|                 PARAVIEW|     10000|
|         SURFACE_PARAVIEW|     10000|
|              SURFACE_CSV|     10000|
+------------------------------------+
Writing the convergence history file every 1 inner iterations.
Writing the screen convergence history every 1 inner iterations.
The tabular file format is CSV (.csv).
Convergence history file name: history_direct.
Forces breakdown file name: forces_breakdown.dat.
Surface file name: surface_flow.
Volume file name: flow.
Restart file name: restart_flow.dat.

------------- Config File Boundary Information ( Zone 0 ) ---------------
+-----------------------------------------------------------------------+
|                        Marker Type|                        Marker Name|
+-----------------------------------------------------------------------+
|                          Far-field|                           FARFIELD|
+-----------------------------------------------------------------------+
|                     Heat flux wall|                            AIRFOIL|
+-----------------------------------------------------------------------+

-------------------- Output Preprocessing ( Zone 0 ) --------------------

WARNING: SURFACE_PRESSURE_DROP can only be computed for at least 2 surfaces (outlet, inlet, ...)

Screen output fields: INNER_ITER, RMS_DENSITY, RMS_NU_TILDE, LIFT, DRAG
History output group(s): ITER, RMS_RES, AERO_COEFF
Convergence field(s): RMS_DENSITY
Warning: No (valid) fields chosen for time convergence monitoring. Time convergence monitoring inactive.
Volume output fields: COORDINATES, SOLUTION, PRIMITIVE

------------------- Geometry Preprocessing ( Zone 0 ) -------------------
Two dimensional problem.
13937 grid points before partitioning.
22842 volume elements before partitioning.
2 surface markers.
192 boundary elements in index 0 (Marker = AIRFOIL).
40 boundary elements in index 1 (Marker = FARFIELD).
Executing the partitioning functions.
Building the graph adjacency structure.
Calling ParMETIS... graph partitioning complete (831 edge cuts).
Distributing ParMETIS coloring.
Rebalancing vertices.
Rebalancing volume element connectivity.
Rebalancing markers and surface elements.
14875 vertices including ghost points. 
23674 interior elements including halo cells. 
18780 triangles.
4894 quadrilaterals.
Establishing MPI communication patterns.
Setting point connectivity.
Renumbering points (Reverse Cuthill McKee Ordering).
Recomputing point connectivity.
Setting element connectivity.
Checking the numerical grid orientation.
All volume elements are correctly orientend.
All surface elements are correctly orientend.
Identifying edges and vertices.
Setting the control volume structure.
Area of the computational grid: 32209.9.
Searching for the closest normal neighbors to the surfaces.
Storing a mapping from global to local point index.
Compute the surface curvature.
Max K: 208.389. Mean K: 8.38297. Standard deviation K: 27.3381.
Checking for periodicity.
Computing mesh quality statistics for the dual control volumes.
+--------------------------------------------------------------+
|           Mesh Quality Metric|        Minimum|        Maximum|
+--------------------------------------------------------------+
|    Orthogonality Angle (deg.)|        74.4428|        89.9998|
|     CV Face Area Aspect Ratio|        1.00104|        3359.06|
|           CV Sub-Volume Ratio|        1.00066|        1219.94|
+--------------------------------------------------------------+
Finding max control volume width.
Communicating number of neighbors.
Wetted area = 2.02131 m.
Area projection in the x-plane = 0.128073 m, y-plane = 0.995873 m.
Max. coordinate in the x-direction = 1 m, y-direction = 0.0615117 m.
Min. coordinate in the x-direction = 0 m, y-direction = -0.0626685 m.
Computing wall distances.

-------------------- Solver Preprocessing ( Zone 0 ) --------------------
WARNING: AoA in the solution file (2.76558 deg.) +
         AoA offset in mesh file (0 deg.) = 2.76558 deg.
WARNING: SU2 will use the dCD/dCL provided in the direct solution file: 0.0205988.
WARNING: SU2 will use the dCMz/dCL provided in the direct solution file: 0.0157598.
Viscous flow: Computing pressure using the ideal gas law
based on the free-stream temperature and a density computed
from the Reynolds number.
Force coefficients computed using free-stream values.

-- Models:
+------------------------------------------------------------------------------+
|          Viscosity Model|        Conductivity Model|              Fluid Model|
+------------------------------------------------------------------------------+
|               SUTHERLAND|          CONSTANT_PRANDTL|             STANDARD_AIR|
+------------------------------------------------------------------------------+
-- Fluid properties:
+------------------------------------------------------------------------------+
|                  Name|    Dim. value|    Ref. value|      Unit|Non-dim. value|
+------------------------------------------------------------------------------+
|        Ref. Viscosity|     1.716e-05|             1|   N.s/m^2|     1.716e-05|
|      Sutherland Temp.|        273.15|             1|         K|        273.15|
|     Sutherland Const.|         110.4|             1|         K|         110.4|
+------------------------------------------------------------------------------+
|        Prandtl (Lam.)|             -|             -|         -|          0.71|
|       Prandtl (Turb.)|             -|             -|         -|           0.9|
+------------------------------------------------------------------------------+
|          Gas Constant|       287.058|             1|  N.m/kg.K|       287.058|
|      Spec. Heat Ratio|             -|             -|         -|           1.4|
+------------------------------------------------------------------------------+
-- Initial and free-stream conditions:
+------------------------------------------------------------------------------+
|                  Name|    Dim. value|    Ref. value|      Unit|Non-dim. value|
+------------------------------------------------------------------------------+
|       Static Pressure|         38515|             1|        Pa|         38515|
|               Density|      0.465631|             1|    kg/m^3|      0.465631|
|           Temperature|        288.15|             1|         K|        288.15|
|          Total Energy|        237984|             1|   m^2/s^2|        237984|
|            Velocity-X|       249.487|             1|       m/s|       249.487|
|            Velocity-Y|       12.0517|             1|       m/s|       12.0517|
|    Velocity Magnitude|       249.778|             1|       m/s|       249.778|
+------------------------------------------------------------------------------+
|             Viscosity|    1.7893e-05|             1|   N.s/m^2|    1.7893e-05|
|          Conductivity|             -|             1|   W/m^2.K|             -|
|     Turb. Kin. Energy|       233.959|             1|   m^2/s^2|       233.959|
|     Spec. Dissipation|        608834|             1|       1/s|        608834|
+------------------------------------------------------------------------------+
|           Mach Number|             -|             -|         -|         0.734|
|       Reynolds Number|             -|             -|         -|       6.5e+06|
+------------------------------------------------------------------------------+
Initialize Jacobian structure (Navier-Stokes). MG level: 0.
Initialize Jacobian structure (SA model).

------------------- Numerics Preprocessing ( Zone 0 ) -------------------

----------------- Integration Preprocessing ( Zone 0 ) ------------------

------------------- Iteration Preprocessing ( Zone 0 ) ------------------
Euler/Navier-Stokes/RANS fluid iteration.

------------------------------ Begin Solver -----------------------------

Simulation Run using the Single-zone Driver
WARNING: SU2 was not compiled for an AVX-capable architecture. Performance could be better,
         see https://su2code.github.io/docs_v7/Build-SU2-Linux-MacOS/#compiler-optimizations
+----------------------------------------------------------------+
|  Inner_Iter|    rms[Rho]|     rms[nu]|          CL|          CD|
+----------------------------------------------------------------+
|           0|   -5.684908|   -7.095790|    0.824017|    0.011989|
|           1|   -5.740689|   -7.194048|    0.824025|    0.011992|
|           2|   -5.799309|   -7.320669|    0.824028|    0.011994|
|           3|   -5.843689|   -7.474240|    0.824026|    0.011995|
|           4|   -5.874265|   -7.636938|    0.824023|    0.011995|
|           5|   -5.892763|   -7.751933|    0.824020|    0.011995|
|           6|   -5.901124|   -7.773303|    0.824019|    0.011995|
|           7|   -5.902203|   -7.746135|    0.824019|    0.011995|
|           8|   -5.898739|   -7.713171|    0.824019|    0.011995|
|           9|   -5.892498|   -7.680274|    0.824021|    0.011996|
|          10|   -5.884360|   -7.644942|    0.824023|    0.011996|
|          11|   -5.874843|   -7.609712|    0.824025|    0.011997|
|          12|   -5.864468|   -7.580905|    0.824027|    0.011999|
|          13|   -5.853797|   -7.564062|    0.824030|    0.012000|
|          14|   -5.843321|   -7.562101|    0.824032|    0.012001|
|          15|   -5.833394|   -7.575427|    0.824033|    0.012003|
|          16|   -5.824263|   -7.602012|    0.824035|    0.012004|
|          17|   -5.816135|   -7.636603|    0.824035|    0.012006|
|          18|   -5.809232|   -7.669579|    0.824035|    0.012007|
|          19|   -5.803768|   -7.688458|    0.824035|    0.012008|
|          20|   -5.799902|   -7.685422|    0.824034|    0.012010|
|          21|   -5.797670|   -7.664276|    0.824032|    0.012011|
|          22|   -5.796956|   -7.636112|    0.824029|    0.012011|
|          23|   -5.797506|   -7.610610|    0.824026|    0.012012|
|          24|   -5.798983|   -7.592964|    0.824023|    0.012013|
|          25|   -5.801029|   -7.584847|    0.824020|    0.012013|
|          26|   -5.803335|   -7.585811|    0.824016|    0.012013|
|          27|   -5.805668|   -7.594091|    0.824013|    0.012013|
|          28|   -5.807872|   -7.606992|    0.824009|    0.012013|
|          29|   -5.809837|   -7.621217|    0.824006|    0.012013|
|          30|   -5.811452|   -7.633466|    0.824002|    0.012013|
|          31|   -5.812586|   -7.641319|    0.823999|    0.012013|
|          32|   -5.813076|   -7.644020|    0.823996|    0.012012|
|          33|   -5.812755|   -7.642572|    0.823993|    0.012012|
|          34|   -5.811494|   -7.639072|    0.823990|    0.012011|
|          35|   -5.809240|   -7.635815|    0.823988|    0.012010|
|          36|   -5.806038|   -7.634679|    0.823985|    0.012010|
|          37|   -5.802023|   -7.636915|    0.823983|    0.012009|
|          38|   -5.797392|   -7.643172|    0.823981|    0.012008|
|          39|   -5.792364|   -7.653611|    0.823978|    0.012007|
|          40|   -5.787144|   -7.667983|    0.823976|    0.012006|
|          41|   -5.781901|   -7.685672|    0.823974|    0.012006|
|          42|   -5.776751|   -7.705681|    0.823972|    0.012005|
|          43|   -5.771763|   -7.726605|    0.823970|    0.012004|
|          44|   -5.766959|   -7.746652|    0.823968|    0.012003|
|          45|   -5.762323|   -7.763787|    0.823966|    0.012002|
|          46|   -5.757807|   -7.776089|    0.823964|    0.012002|
|          47|   -5.753338|   -7.782256|    0.823962|    0.012001|
|          48|   -5.748826|   -7.782042|    0.823961|    0.012000|
|          49|   -5.744175|   -7.776330|    0.823960|    0.011999|
|          50|   -5.739296|   -7.766797|    0.823958|    0.011999|
|          51|   -5.734119|   -7.755384|    0.823958|    0.011998|
|          52|   -5.728604|   -7.743854|    0.823957|    0.011997|
|          53|   -5.722744|   -7.733570|    0.823957|    0.011997|
|          54|   -5.716572|   -7.725451|    0.823956|    0.011996|
|          55|   -5.710149|   -7.720020|    0.823957|    0.011996|
|          56|   -5.703558|   -7.717484|    0.823957|    0.011995|
|          57|   -5.696895|   -7.717814|    0.823958|    0.011994|
|          58|   -5.690251|   -7.720805|    0.823959|    0.011994|
|          59|   -5.683707|   -7.726129|    0.823960|    0.011993|
|          60|   -5.677326|   -7.733379|    0.823961|    0.011993|
|          61|   -5.671148|   -7.742102|    0.823963|    0.011992|
|          62|   -5.665196|   -7.751829|    0.823964|    0.011992|
|          63|   -5.659472|   -7.762104|    0.823966|    0.011991|
|          64|   -5.653971|   -7.772500|    0.823968|    0.011991|
|          65|   -5.648680|   -7.782635|    0.823970|    0.011991|
|          66|   -5.643585|   -7.792181|    0.823972|    0.011990|
|          67|   -5.638679|   -7.800874|    0.823974|    0.011990|
|          68|   -5.633960|   -7.808518|    0.823976|    0.011989|
|          69|   -5.629434|   -7.815000|    0.823978|    0.011989|
|          70|   -5.625116|   -7.820286|    0.823980|    0.011989|
|          71|   -5.621022|   -7.824425|    0.823981|    0.011988|
|          72|   -5.617172|   -7.827529|    0.823983|    0.011988|
|          73|   -5.613582|   -7.829756|    0.823984|    0.011988|
|          74|   -5.610263|   -7.831269|    0.823985|    0.011988|
|          75|   -5.607220|   -7.832215|    0.823986|    0.011988|
|          76|   -5.604448|   -7.832695|    0.823987|    0.011987|
|          77|   -5.601935|   -7.832756|    0.823988|    0.011987|
|          78|   -5.599659|   -7.832392|    0.823989|    0.011987|
|          79|   -5.597594|   -7.831566|    0.823989|    0.011987|
|          80|   -5.595710|   -7.830229|    0.823990|    0.011987|
|          81|   -5.593978|   -7.828359|    0.823990|    0.011987|
|          82|   -5.592367|   -7.825977|    0.823990|    0.011986|
|          83|   -5.590856|   -7.823163|    0.823991|    0.011986|
|          84|   -5.589426|   -7.820057|    0.823991|    0.011986|
|          85|   -5.588069|   -7.816847|    0.823991|    0.011986|
|          86|   -5.586786|   -7.813743|    0.823991|    0.011986|
|          87|   -5.585586|   -7.810960|    0.823991|    0.011986|
|          88|   -5.584486|   -7.808692|    0.823992|    0.011986|
|          89|   -5.583514|   -7.807096|    0.823992|    0.011986|
|          90|   -5.582701|   -7.806281|    0.823992|    0.011986|
|          91|   -5.582081|   -7.806310|    0.823992|    0.011986|
|          92|   -5.581695|   -7.807199|    0.823992|    0.011986|
|          93|   -5.581579|   -7.808925|    0.823993|    0.011986|
|          94|   -5.581770|   -7.811432|    0.823993|    0.011986|
|          95|   -5.582302|   -7.814644|    0.823993|    0.011987|
|          96|   -5.583201|   -7.818471|    0.823994|    0.011987|
|          97|   -5.584488|   -7.822816|    0.823994|    0.011987|
|          98|   -5.586173|   -7.827587|    0.823994|    0.011987|
|          99|   -5.588258|   -7.832695|    0.823995|    0.011987|
|         100|   -5.590730|   -7.838062|    0.823995|    0.011988|
|         101|   -5.593567|   -7.843622|    0.823996|    0.011988|
+-----------------------------------------------------------------------+
|Fixed CL Mode                           |Value                         |
+-----------------------------------------------------------------------+
|Current CL                              |0.823996                      |
|Target CL                               |0.824                         |
|Previous AOA                            |2.76558                       |
|Changed AoA by                          |2.30535e-05                   |
+-----------------------------------------------------------------------+
+----------------------------------------------------------------+
|  Inner_Iter|    rms[Rho]|     rms[nu]|          CL|          CD|
+----------------------------------------------------------------+
|         102|   -4.825525|   -7.848073|    0.823997|    0.011989|
|         103|   -5.194617|   -7.854573|    0.823997|    0.011989|
|         104|   -5.405986|   -7.860586|    0.823998|    0.011989|
|         105|   -5.458289|   -7.866533|    0.823998|    0.011990|
|         106|   -5.480951|   -7.872479|    0.823999|    0.011990|
|         107|   -5.505724|   -7.878437|    0.824000|    0.011990|
|         108|   -5.531134|   -7.884413|    0.824000|    0.011991|
|         109|   -5.551248|   -7.890411|    0.824001|    0.011991|
|         110|   -5.564137|   -7.896437|    0.824002|    0.011992|
|         111|   -5.572010|   -7.902493|    0.824002|    0.011992|
|         112|   -5.577454|   -7.908583|    0.824002|    0.011992|
|         113|   -5.581692|   -7.914701|    0.824003|    0.011993|
|         114|   -5.585102|   -7.920838|    0.824003|    0.011993|
|         115|   -5.587975|   -7.926975|    0.824004|    0.011994|
|         116|   -5.590662|   -7.933084|    0.824004|    0.011994|
|         117|   -5.593361|   -7.939131|    0.824004|    0.011994|
|         118|   -5.595976|   -7.945081|    0.824004|    0.011995|
|         119|   -5.598221|   -7.950901|    0.824004|    0.011995|
|         120|   -5.599842|   -7.956566|    0.824004|    0.011995|
|         121|   -5.600790|   -7.962061|    0.824004|    0.011995|
|         122|   -5.601225|   -7.967383|    0.824004|    0.011996|
|         123|   -5.601387|   -7.972542|    0.824004|    0.011996|
|         124|   -5.601455|   -7.977565|    0.824003|    0.011996|
|         125|   -5.601479|   -7.982487|    0.824003|    0.011996|
|         126|   -5.601399|   -7.987358|    0.824003|    0.011997|
|         127|   -5.601110|   -7.992231|    0.824003|    0.011997|
|         128|   -5.600525|   -7.997164|    0.824002|    0.011997|
|         129|   -5.599600|   -8.002214|    0.824002|    0.011997|
|         130|   -5.598346|   -8.007426|    0.824002|    0.011997|
|         131|   -5.596813|   -8.012839|    0.824002|    0.011997|
|         132|   -5.595079|   -8.018474|    0.824002|    0.011998|
|         133|   -5.593228|   -8.024333|    0.824002|    0.011998|
|         134|   -5.591335|   -8.030399|    0.824001|    0.011998|
|         135|   -5.589450|   -8.036635|    0.824001|    0.011998|
|         136|   -5.587589|   -8.042981|    0.824001|    0.011998|
|         137|   -5.585736|   -8.049363|    0.824001|    0.011998|
|         138|   -5.583852|   -8.055689|    0.824001|    0.011998|
|         139|   -5.581880|   -8.061859|    0.824001|    0.011999|
|         140|   -5.579765|   -8.067771|    0.824001|    0.011999|
|         141|   -5.577461|   -8.073324|    0.824001|    0.011999|
|         142|   -5.574940|   -8.078427|    0.824001|    0.011999|
|         143|   -5.572197|   -8.083005|    0.824001|    0.011999|
|         144|   -5.569250|   -8.087007|    0.824001|    0.011999|
|         145|   -5.566136|   -8.090407|    0.824001|    0.011999|
|         146|   -5.562902|   -8.093210|    0.824002|    0.011999|
|         147|   -5.559601|   -8.095446|    0.824002|    0.011999|
|         148|   -5.556279|   -8.097172|    0.824002|    0.012000|
|         149|   -5.552976|   -8.098463|    0.824002|    0.012000|
|         150|   -5.549720|   -8.099407|    0.824002|    0.012000|
|         151|   -5.546530|   -8.100100|    0.824001|    0.012000|
|         152|   -5.543416|   -8.100636|    0.824001|    0.012000|
|         153|   -5.540387|   -8.101102|    0.824001|    0.012000|
|         154|   -5.537448|   -8.101573|    0.824001|    0.012000|
|         155|   -5.534604|   -8.102110|    0.824001|    0.012000|
|         156|   -5.531865|   -8.102753|    0.824001|    0.012000|
|         157|   -5.529241|   -8.103525|    0.824001|    0.012000|
|         158|   -5.526743|   -8.104426|    0.824001|    0.012000|
|         159|   -5.524386|   -8.105440|    0.824000|    0.012000|
|         160|   -5.522181|   -8.106537|    0.824000|    0.012000|
|         161|   -5.520141|   -8.107674|    0.824000|    0.012000|
|         162|   -5.518274|   -8.108803|    0.824000|    0.012000|
|         163|   -5.516590|   -8.109874|    0.824000|    0.012000|
|         164|   -5.515093|   -8.110843|    0.823999|    0.012000|
|         165|   -5.513785|   -8.111673|    0.823999|    0.011999|
|         166|   -5.512668|   -8.112339|    0.823999|    0.011999|
|         167|   -5.511737|   -8.112833|    0.823999|    0.011999|
|         168|   -5.510988|   -8.113167|    0.823999|    0.011999|
|         169|   -5.510413|   -8.113368|    0.823999|    0.011999|
|         170|   -5.510002|   -8.113479|    0.823999|    0.011999|
|         171|   -5.509742|   -8.113556|    0.823999|    0.011999|
|         172|   -5.509620|   -8.113664|    0.823999|    0.011999|
|         173|   -5.509619|   -8.113871|    0.823999|    0.011999|
|         174|   -5.509725|   -8.114244|    0.823999|    0.011998|
|         175|   -5.509921|   -8.114846|    0.823999|    0.011998|
|         176|   -5.510192|   -8.115734|    0.823999|    0.011998|
|         177|   -5.510528|   -8.116953|    0.823999|    0.011998|
|         178|   -5.510919|   -8.118533|    0.823999|    0.011998|
|         179|   -5.511361|   -8.120493|    0.823999|    0.011998|
|         180|   -5.511853|   -8.122835|    0.824000|    0.011998|
|         181|   -5.512401|   -8.125544|    0.824000|    0.011997|
|         182|   -5.513017|   -8.128593|    0.824000|    0.011997|
|         183|   -5.513716|   -8.131939|    0.824000|    0.011997|
|         184|   -5.514519|   -8.135529|    0.824001|    0.011997|
|         185|   -5.515453|   -8.139302|    0.824001|    0.011997|
|         186|   -5.516544|   -8.143190|    0.824001|    0.011997|
|         187|   -5.517825|   -8.147122|    0.824001|    0.011997|
|         188|   -5.519324|   -8.151032|    0.824001|    0.011996|
|         189|   -5.521070|   -8.154855|    0.824002|    0.011996|
|         190|   -5.523090|   -8.158538|    0.824002|    0.011996|
|         191|   -5.525404|   -8.162038|    0.824002|    0.011996|
|         192|   -5.528027|   -8.165326|    0.824002|    0.011996|
|         193|   -5.530965|   -8.168390|    0.824003|    0.011996|
|         194|   -5.534217|   -8.171232|    0.824003|    0.011995|
|         195|   -5.537769|   -8.173874|    0.824003|    0.011995|
|         196|   -5.541598|   -8.176348|    0.824003|    0.011995|
|         197|   -5.545668|   -8.178700|    0.824003|    0.011995|
|         198|   -5.549932|   -8.180983|    0.824004|    0.011995|
|         199|   -5.554332|   -8.183257|    0.824004|    0.011995|
|         200|   -5.558799|   -8.185585|    0.824004|    0.011994|
|         201|   -5.563257|   -8.188030|    0.824004|    0.011994|
+-----------------------------------------------------------------------+
|Fixed CL Mode                           |Value                         |
+-----------------------------------------------------------------------+
|Current CL                              |0.824004                      |
|Target CL                               |0.824                         |
|Previous AOA                            |2.7656                        |
|Changed AoA by                          |-1.92523e-05                  |
+-----------------------------------------------------------------------+
+----------------------------------------------------------------+
|  Inner_Iter|    rms[Rho]|     rms[nu]|          CL|          CD|
+----------------------------------------------------------------+
|         202|   -4.899406|   -8.185071|    0.824004|    0.011994|
|         203|   -5.241762|   -8.190144|    0.824004|    0.011994|
|         204|   -5.402259|   -8.193795|    0.824004|    0.011994|
|         205|   -5.439203|   -8.197547|    0.824005|    0.011994|
|         206|   -5.463618|   -8.201637|    0.824005|    0.011993|
|         207|   -5.493035|   -8.206104|    0.824005|    0.011993|
|         208|   -5.523074|   -8.210931|    0.824005|    0.011993|
|         209|   -5.547256|   -8.216085|    0.824005|    0.011993|
|         210|   -5.563016|   -8.221511|    0.824005|    0.011993|
|         211|   -5.571919|   -8.227143|    0.824005|    0.011993|
|         212|   -5.576532|   -8.232908|    0.824006|    0.011993|
|         213|   -5.578607|   -8.238740|    0.824006|    0.011993|
|         214|   -5.579191|   -8.244570|    0.824006|    0.011993|
|         215|   -5.579121|   -8.250326|    0.824006|    0.011993|
|         216|   -5.579122|   -8.255933|    0.824006|    0.011993|
|         217|   -5.579657|   -8.261307|    0.824006|    0.011993|
|         218|   -5.580858|   -8.266367|    0.824006|    0.011993|
|         219|   -5.582617|   -8.271038|    0.824006|    0.011993|
|         220|   -5.584768|   -8.275254|    0.824007|    0.011993|
|         221|   -5.587240|   -8.278965|    0.824007|    0.011993|
|         222|   -5.590096|   -8.282137|    0.824007|    0.011993|
|         223|   -5.593483|   -8.284759|    0.824007|    0.011993|
|         224|   -5.597549|   -8.286841|    0.824007|    0.011993|
|         225|   -5.602396|   -8.288416|    0.824007|    0.011993|
|         226|   -5.608071|   -8.289542|    0.824008|    0.011993|
|         227|   -5.614582|   -8.290293|    0.824008|    0.011993|
|         228|   -5.621925|   -8.290759|    0.824008|    0.011993|
|         229|   -5.630091|   -8.291038|    0.824008|    0.011993|
|         230|   -5.639070|   -8.291232|    0.824008|    0.011993|
|         231|   -5.648848|   -8.291441|    0.824008|    0.011993|
|         232|   -5.659411|   -8.291765|    0.824009|    0.011993|
|         233|   -5.670739|   -8.292293|    0.824009|    0.011994|
|         234|   -5.682813|   -8.293106|    0.824009|    0.011994|
|         235|   -5.695601|   -8.294273|    0.824009|    0.011994|
|         236|   -5.709052|   -8.295850|    0.824009|    0.011994|
|         237|   -5.723091|   -8.297879|    0.824010|    0.011994|
|         238|   -5.737611|   -8.300386|    0.824010|    0.011994|
|         239|   -5.752470|   -8.303383|    0.824010|    0.011994|
|         240|   -5.767490|   -8.306865|    0.824010|    0.011994|
|         241|   -5.782466|   -8.310814|    0.824010|    0.011995|
|         242|   -5.797175|   -8.315194|    0.824011|    0.011995|
|         243|   -5.811387|   -8.319958|    0.824011|    0.011995|
|         244|   -5.824888|   -8.325044|    0.824011|    0.011995|
|         245|   -5.837493|   -8.330377|    0.824011|    0.011995|
|         246|   -5.849056|   -8.335873|    0.824012|    0.011995|
|         247|   -5.859475|   -8.341443|    0.824012|    0.011996|
|         248|   -5.868690|   -8.346988|    0.824012|    0.011996|
|         249|   -5.876676|   -8.352414|    0.824012|    0.011996|
|         250|   -5.883439|   -8.357626|    0.824012|    0.011996|
|         251|   -5.889009|   -8.362539|    0.824012|    0.011996|
|         252|   -5.893437|   -8.367084|    0.824013|    0.011996|
|         253|   -5.896797|   -8.371205|    0.824013|    0.011996|
|         254|   -5.899184|   -8.374874|    0.824013|    0.011996|
|         255|   -5.900712|   -8.378079|    0.824013|    0.011997|
|         256|   -5.901509|   -8.380832|    0.824013|    0.011997|
|         257|   -5.901714|   -8.383168|    0.824013|    0.011997|
|         258|   -5.901464|   -8.385141|    0.824013|    0.011997|
|         259|   -5.900894|   -8.386819|    0.824013|    0.011997|
|         260|   -5.900126|   -8.388281|    0.824013|    0.011997|
|         261|   -5.899269|   -8.389608|    0.824013|    0.011997|
|         262|   -5.898415|   -8.390881|    0.824013|    0.011997|
|         263|   -5.897641|   -8.392173|    0.824013|    0.011997|
|         264|   -5.897011|   -8.393546|    0.824012|    0.011997|
|         265|   -5.896574|   -8.395043|    0.824012|    0.011997|
|         266|   -5.896371|   -8.396690|    0.824012|    0.011998|
|         267|   -5.896435|   -8.398492|    0.824012|    0.011998|
|         268|   -5.896793|   -8.400427|    0.824011|    0.011998|
|         269|   -5.897464|   -8.402455|    0.824011|    0.011998|
|         270|   -5.898465|   -8.404511|    0.824011|    0.011998|
|         271|   -5.899807|   -8.406509|    0.824011|    0.011998|
|         272|   -5.901500|   -8.408350|    0.824010|    0.011998|
|         273|   -5.903547|   -8.409920|    0.824010|    0.011998|
|         274|   -5.905952|   -8.411105|    0.824010|    0.011998|
|         275|   -5.908714|   -8.411790|    0.824009|    0.011998|
|         276|   -5.911829|   -8.411877|    0.824009|    0.011998|
|         277|   -5.915293|   -8.411285|    0.824009|    0.011998|
|         278|   -5.919098|   -8.409963|    0.824008|    0.011998|
|         279|   -5.923236|   -8.407895|    0.824008|    0.011998|
|         280|   -5.927693|   -8.405096|    0.824008|    0.011997|
|         281|   -5.932458|   -8.401625|    0.824007|    0.011997|
|         282|   -5.937514|   -8.397568|    0.824007|    0.011997|
|         283|   -5.942844|   -8.393037|    0.824007|    0.011997|
|         284|   -5.948425|   -8.388168|    0.824006|    0.011997|
|         285|   -5.954235|   -8.383105|    0.824006|    0.011997|
|         286|   -5.960249|   -8.377996|    0.824006|    0.011997|
|         287|   -5.966438|   -8.372986|    0.824006|    0.011997|
|         288|   -5.972771|   -8.368212|    0.824006|    0.011997|
|         289|   -5.979217|   -8.363798|    0.824006|    0.011997|
|         290|   -5.985742|   -8.359850|    0.824005|    0.011997|
|         291|   -5.992310|   -8.356461|    0.824005|    0.011997|
|         292|   -5.998889|   -8.353706|    0.824005|    0.011997|
|         293|   -6.005442|   -8.351641|    0.824005|    0.011997|
|         294|   -6.011937|   -8.350308|    0.824005|    0.011996|
|         295|   -6.018342|   -8.349733|    0.824005|    0.011996|
|         296|   -6.024627|   -8.349926|    0.824005|    0.011996|
|         297|   -6.030767|   -8.350887|    0.824005|    0.011996|
|         298|   -6.036739|   -8.352602|    0.824005|    0.011996|
|         299|   -6.042524|   -8.355046|    0.824005|    0.011996|
|         300|   -6.048105|   -8.358185|    0.824005|    0.011996|
|         301|   -6.053472|   -8.361974|    0.824006|    0.011995|
+-----------------------------------------------------------------------+
|Fixed CL Mode                           |Value                         |
+-----------------------------------------------------------------------+
|Current CL                              |0.824006                      |
|Target CL                               |0.824                         |
|Previous AOA                            |2.76558                       |
|Changed AoA by                          |-2.70469e-05                  |
+-----------------------------------------------------------------------+
+----------------------------------------------------------------+
|  Inner_Iter|    rms[Rho]|     rms[nu]|          CL|          CD|
+----------------------------------------------------------------+
|         302|   -4.760547|   -8.344177|    0.824006|    0.011995|
|         303|   -5.141023|   -8.359463|    0.824006|    0.011995|
|         304|   -5.375133|   -8.367963|    0.824006|    0.011995|
|         305|   -5.448624|   -8.375459|    0.824006|    0.011995|
|         306|   -5.498927|   -8.382802|    0.824006|    0.011995|
|         307|   -5.563264|   -8.390142|    0.824006|    0.011995|
|         308|   -5.640486|   -8.397494|    0.824006|    0.011995|
|         309|   -5.717872|   -8.404847|    0.824007|    0.011995|
|         310|   -5.781563|   -8.412174|    0.824007|    0.011995|
|         311|   -5.826593|   -8.419434|    0.824007|    0.011994|
|         312|   -5.855917|   -8.426586|    0.824007|    0.011994|
|         313|   -5.873297|   -8.433615|    0.824007|    0.011994|
|         314|   -5.881839|   -8.440526|    0.824008|    0.011994|
|         315|   -5.885660|   -8.447319|    0.824008|    0.011994|
|         316|   -5.889312|   -8.453984|    0.824008|    0.011994|
|         317|   -5.895869|   -8.460508|    0.824008|    0.011994|
|         318|   -5.906014|   -8.466887|    0.824008|    0.011994|
|         319|   -5.918479|   -8.473139|    0.824009|    0.011994|
|         320|   -5.931240|   -8.479294|    0.824009|    0.011994|
|         321|   -5.942775|   -8.485385|    0.824009|    0.011994|
|         322|   -5.952713|   -8.491441|    0.824009|    0.011994|
|         323|   -5.961589|   -8.497484|    0.824009|    0.011994|
|         324|   -5.970112|   -8.503530|    0.824010|    0.011994|
|         325|   -5.978612|   -8.509596|    0.824010|    0.011994|
|         326|   -5.986939|   -8.515699|    0.824010|    0.011994|
|         327|   -5.994671|   -8.521858|    0.824010|    0.011993|
|         328|   -6.001374|   -8.528095|    0.824011|    0.011993|
|         329|   -6.006764|   -8.534428|    0.824011|    0.011993|
|         330|   -6.010742|   -8.540873|    0.824011|    0.011993|
|         331|   -6.013383|   -8.547439|    0.824011|    0.011993|
|         332|   -6.014920|   -8.554128|    0.824012|    0.011993|
|         333|   -6.015702|   -8.560932|    0.824012|    0.011993|
|         334|   -6.016138|   -8.567828|    0.824012|    0.011993|
|         335|   -6.016604|   -8.574787|    0.824012|    0.011993|
|         336|   -6.017381|   -8.581764|    0.824012|    0.011993|
|         337|   -6.018603|   -8.588710|    0.824013|    0.011993|
|         338|   -6.020261|   -8.595565|    0.824013|    0.011993|
|         339|   -6.022225|   -8.602265|    0.824013|    0.011993|
|         340|   -6.024287|   -8.608745|    0.824013|    0.011993|
|         341|   -6.026211|   -8.614943|    0.824014|    0.011993|
|         342|   -6.027797|   -8.620796|    0.824014|    0.011993|
|         343|   -6.028928|   -8.626252|    0.824014|    0.011993|
|         344|   -6.029604|   -8.631264|    0.824014|    0.011993|
|         345|   -6.029940|   -8.635792|    0.824014|    0.011994|
|         346|   -6.030135|   -8.639810|    0.824015|    0.011994|
|         347|   -6.030418|   -8.643298|    0.824015|    0.011994|
|         348|   -6.031000|   -8.646249|    0.824015|    0.011994|
|         349|   -6.032036|   -8.648663|    0.824015|    0.011994|
|         350|   -6.033603|   -8.650554|    0.824015|    0.011994|
|         351|   -6.035708|   -8.651945|    0.824015|    0.011994|
|         352|   -6.038301|   -8.652869|    0.824015|    0.011994|
|         353|   -6.041305|   -8.653369|    0.824015|    0.011994|
|         354|   -6.044637|   -8.653498|    0.824015|    0.011994|
|         355|   -6.048228|   -8.653315|    0.824015|    0.011994|
|         356|   -6.052040|   -8.652886|    0.824015|    0.011994|
|         357|   -6.056064|   -8.652288|    0.824015|    0.011994|
|         358|   -6.060317|   -8.651594|    0.824015|    0.011994|
|         359|   -6.064833|   -8.650882|    0.824015|    0.011994|
|         360|   -6.069653|   -8.650226|    0.824015|    0.011994|
|         361|   -6.074812|   -8.649701|    0.824015|    0.011994|
|         362|   -6.080335|   -8.649379|    0.824015|    0.011994|
|         363|   -6.086232|   -8.649326|    0.824015|    0.011994|
|         364|   -6.092502|   -8.649602|    0.824015|    0.011994|
|         365|   -6.099130|   -8.650260|    0.824014|    0.011994|
|         366|   -6.106091|   -8.651345|    0.824014|    0.011994|
|         367|   -6.113357|   -8.652893|    0.824014|    0.011994|
|         368|   -6.120895|   -8.654926|    0.824014|    0.011995|
|         369|   -6.128666|   -8.657456|    0.824014|    0.011995|
|         370|   -6.136632|   -8.660484|    0.824013|    0.011995|
|         371|   -6.144748|   -8.663993|    0.824013|    0.011995|
|         372|   -6.152964|   -8.667958|    0.824013|    0.011995|
|         373|   -6.161224|   -8.672331|    0.824013|    0.011995|
|         374|   -6.169467|   -8.677050|    0.824012|    0.011995|
|         375|   -6.177626|   -8.682036|    0.824012|    0.011995|
|         376|   -6.185627|   -8.687194|    0.824012|    0.011995|
|         377|   -6.193395|   -8.692412|    0.824011|    0.011995|
|         378|   -6.200853|   -8.697565|    0.824011|    0.011995|
|         379|   -6.207926|   -8.702517|    0.824011|    0.011995|
|         380|   -6.214544|   -8.707129|    0.824011|    0.011995|
|         381|   -6.220641|   -8.711260|    0.824010|    0.011995|
|         382|   -6.226164|   -8.714779|    0.824010|    0.011995|
|         383|   -6.231071|   -8.717570|    0.824010|    0.011995|
|         384|   -6.235332|   -8.719543|    0.824010|    0.011995|
|         385|   -6.238934|   -8.720641|    0.824009|    0.011995|
|         386|   -6.241878|   -8.720838|    0.824009|    0.011995|
|         387|   -6.244181|   -8.720152|    0.824009|    0.011995|
|         388|   -6.245874|   -8.718635|    0.824009|    0.011995|
|         389|   -6.246997|   -8.716372|    0.824009|    0.011995|
|         390|   -6.247604|   -8.713476|    0.824008|    0.011995|
|         391|   -6.247753|   -8.710078|    0.824008|    0.011995|
|         392|   -6.247507|   -8.706320|    0.824008|    0.011995|
|         393|   -6.246931|   -8.702349|    0.824008|    0.011995|
|         394|   -6.246090|   -8.698307|    0.824008|    0.011995|
|         395|   -6.245044|   -8.694328|    0.824008|    0.011995|
|         396|   -6.243853|   -8.690532|    0.824007|    0.011995|
|         397|   -6.242568|   -8.687027|    0.824007|    0.011995|
|         398|   -6.241236|   -8.683900|    0.824007|    0.011995|
|         399|   -6.239898|   -8.681226|    0.824007|    0.011995|
|         400|   -6.238590|   -8.679058|    0.824007|    0.011995|
|         401|   -6.237340|   -8.677437|    0.824007|    0.011995|
+-----------------------------------------------------------------------+
|Fixed CL Mode                           |Value                         |
+-----------------------------------------------------------------------+
|Current CL                              |0.824007                      |
|Target CL                               |0.824                         |
|Previous AOA                            |2.76555                       |
|Changed AoA by                          |-3.55339e-05                  |
+-----------------------------------------------------------------------+
+----------------------------------------------------------------+
|  Inner_Iter|    rms[Rho]|     rms[nu]|          CL|          CD|
+----------------------------------------------------------------+
|         402|   -4.642677|   -8.555793|    0.824007|    0.011995|
|         403|   -5.026544|   -8.608646|    0.824007|    0.011995|
|         404|   -5.268268|   -8.627306|    0.824007|    0.011995|
|         405|   -5.345140|   -8.638568|    0.824007|    0.011994|
|         406|   -5.397418|   -8.647172|    0.824007|    0.011994|
|         407|   -5.465358|   -8.654293|    0.824007|    0.011994|
|         408|   -5.548935|   -8.660380|    0.824007|    0.011994|
|         409|   -5.635395|   -8.665757|    0.824007|    0.011994|
|         410|   -5.709029|   -8.670629|    0.824007|    0.011994|
|         411|   -5.762503|   -8.675062|    0.824007|    0.011994|
|         412|   -5.797821|   -8.679096|    0.824007|    0.011994|
|         413|   -5.818710|   -8.682850|    0.824007|    0.011994|
|         414|   -5.828654|   -8.686501|    0.824007|    0.011994|
|         415|   -5.832868|   -8.690162|    0.824007|    0.011994|
|         416|   -5.837320|   -8.693804|    0.824007|    0.011994|
|         417|   -5.846087|   -8.697325|    0.824007|    0.011994|
|         418|   -5.860173|   -8.700629|    0.824007|    0.011994|
|         419|   -5.878031|   -8.703661|    0.824007|    0.011994|
|         420|   -5.896986|   -8.706415|    0.824007|    0.011994|
|         421|   -5.914878|   -8.708872|    0.824007|    0.011994|
|         422|   -5.931100|   -8.711012|    0.824007|    0.011994|
|         423|   -5.946415|   -8.712782|    0.824007|    0.011994|
|         424|   -5.961948|   -8.714114|    0.824007|    0.011994|
|         425|   -5.978280|   -8.714972|    0.824007|    0.011994|
|         426|   -5.995185|   -8.715344|    0.824007|    0.011994|
|         427|   -6.011876|   -8.715263|    0.824007|    0.011994|
|         428|   -6.027414|   -8.714788|    0.824007|    0.011994|
|         429|   -6.041032|   -8.714002|    0.824007|    0.011994|
|         430|   -6.052307|   -8.712998|    0.824007|    0.011994|
|         431|   -6.061221|   -8.711878|    0.824007|    0.011994|
|         432|   -6.068177|   -8.710734|    0.824007|    0.011994|
|         433|   -6.073922|   -8.709644|    0.824007|    0.011994|
|         434|   -6.079392|   -8.708671|    0.824007|    0.011994|
|         435|   -6.085494|   -8.707858|    0.824007|    0.011994|
|         436|   -6.092921|   -8.707226|    0.824007|    0.011994|
|         437|   -6.102044|   -8.706782|    0.824007|    0.011994|
|         438|   -6.112871|   -8.706522|    0.824007|    0.011994|
|         439|   -6.125060|   -8.706428|    0.824007|    0.011994|
|         440|   -6.137969|   -8.706479|    0.824007|    0.011994|
|         441|   -6.150750|   -8.706651|    0.824007|    0.011994|
|         442|   -6.162503|   -8.706918|    0.824007|    0.011994|
|         443|   -6.172493|   -8.707256|    0.824007|    0.011994|
|         444|   -6.180345|   -8.707638|    0.824007|    0.011994|
|         445|   -6.186144|   -8.708035|    0.824007|    0.011994|
|         446|   -6.190384|   -8.708419|    0.824007|    0.011994|
|         447|   -6.193777|   -8.708754|    0.824007|    0.011994|
|         448|   -6.197036|   -8.709001|    0.824007|    0.011994|
|         449|   -6.200701|   -8.709117|    0.824007|    0.011994|
|         450|   -6.205050|   -8.709058|    0.824007|    0.011994|
|         451|   -6.210093|   -8.708780|    0.824007|    0.011994|
|         452|   -6.215624|   -8.708241|    0.824007|    0.011994|
|         453|   -6.221306|   -8.707405|    0.824007|    0.011994|
|         454|   -6.226770|   -8.706246|    0.824007|    0.011994|
|         455|   -6.231703|   -8.704750|    0.824007|    0.011994|
|         456|   -6.235910|   -8.702916|    0.824007|    0.011994|
|         457|   -6.239337|   -8.700766|    0.824007|    0.011994|
|         458|   -6.242059|   -8.698325|    0.824007|    0.011994|
|         459|   -6.244237|   -8.695634|    0.824007|    0.011994|
|         460|   -6.246067|   -8.692752|    0.824007|    0.011994|
|         461|   -6.247736|   -8.689747|    0.824007|    0.011994|
|         462|   -6.249392|   -8.686697|    0.824006|    0.011994|
|         463|   -6.251136|   -8.683685|    0.824006|    0.011994|
|         464|   -6.253026|   -8.680802|    0.824006|    0.011994|
|         465|   -6.255086|   -8.678129|    0.824006|    0.011994|
|         466|   -6.257325|   -8.675750|    0.824006|    0.011994|
|         467|   -6.259744|   -8.673743|    0.824006|    0.011994|
|         468|   -6.262351|   -8.672178|    0.824005|    0.011994|
|         469|   -6.265156|   -8.671116|    0.824005|    0.011994|
|         470|   -6.268178|   -8.670607|    0.824005|    0.011994|
|         471|   -6.271437|   -8.670687|    0.824005|    0.011994|
|         472|   -6.274953|   -8.671380|    0.824005|    0.011994|
|         473|   -6.278745|   -8.672690|    0.824005|    0.011994|
|         474|   -6.282821|   -8.674607|    0.824004|    0.011994|
|         475|   -6.287188|   -8.677111|    0.824004|    0.011994|
|         476|   -6.291845|   -8.680153|    0.824004|    0.011994|
|         477|   -6.296787|   -8.683670|    0.824004|    0.011994|
|         478|   -6.302004|   -8.687583|    0.824004|    0.011994|
|         479|   -6.307483|   -8.691793|    0.824003|    0.011994|
|         480|   -6.313210|   -8.696189|    0.824003|    0.011994|
|         481|   -6.319169|   -8.700644|    0.824003|    0.011994|
|         482|   -6.325338|   -8.705026|    0.824003|    0.011994|
|         483|   -6.331698|   -8.709201|    0.824003|    0.011994|
|         484|   -6.338222|   -8.713037|    0.824003|    0.011994|
|         485|   -6.344885|   -8.716417|    0.824003|    0.011994|
|         486|   -6.351656|   -8.719242|    0.824003|    0.011994|
|         487|   -6.358502|   -8.721440|    0.824003|    0.011994|
|         488|   -6.365387|   -8.722972|    0.824003|    0.011994|
|         489|   -6.372275|   -8.723831|    0.824003|    0.011994|
|         490|   -6.379125|   -8.724049|    0.824002|    0.011994|
|         491|   -6.385895|   -8.723690|    0.824002|    0.011994|
|         492|   -6.392541|   -8.722845|    0.824002|    0.011994|
|         493|   -6.399020|   -8.721628|    0.824002|    0.011994|
|         494|   -6.405285|   -8.720166|    0.824003|    0.011994|
|         495|   -6.411291|   -8.718595|    0.824003|    0.011994|
|         496|   -6.416993|   -8.717047|    0.824003|    0.011994|
|         497|   -6.422347|   -8.715651|    0.824003|    0.011994|
|         498|   -6.427312|   -8.714525|    0.824003|    0.011994|
|         499|   -6.431850|   -8.713771|    0.824003|    0.011994|
|         500|   -6.435928|   -8.713478|    0.824003|    0.011994|
|         501|   -6.439519|   -8.713714|    0.824003|    0.011994|
+-----------------------------------------------------------------------+
|Fixed CL Mode                           |Value                         |
+-----------------------------------------------------------------------+
|Current CL                              |0.824003                      |
|Target CL                               |0.824                         |
|Previous AOA                            |2.76552                       |
|Changed AoA by                          |-1.40672e-05                  |
+-----------------------------------------------------------------------+
+----------------------------------------------------------------+
|  Inner_Iter|    rms[Rho]|     rms[nu]|          CL|          CD|
+----------------------------------------------------------------+
|         502|   -5.045073|   -8.687003|    0.824003|    0.011994|
|         503|   -5.428661|   -8.702200|    0.824003|    0.011994|
|         504|   -5.668817|   -8.708397|    0.824003|    0.011994|
|         505|   -5.743442|   -8.713332|    0.824003|    0.011994|
|         506|   -5.793251|   -8.718198|    0.824003|    0.011994|
|         507|   -5.857853|   -8.723247|    0.824003|    0.011994|
|         508|   -5.936515|   -8.728533|    0.824003|    0.011994|
|         509|   -6.016255|   -8.734068|    0.824004|    0.011994|
|         510|   -6.082376|   -8.739839|    0.824004|    0.011994|
|         511|   -6.129164|   -8.745794|    0.824004|    0.011994|
|         512|   -6.159469|   -8.751879|    0.824004|    0.011994|
|         513|   -6.177199|   -8.758051|    0.824004|    0.011994|
|         514|   -6.185605|   -8.764279|    0.824004|    0.011994|
|         515|   -6.189038|   -8.770517|    0.824004|    0.011994|
|         516|   -6.192343|   -8.776692|    0.824004|    0.011994|
|         517|   -6.198788|   -8.782718|    0.824004|    0.011994|
|         518|   -6.209109|   -8.788514|    0.824004|    0.011994|
|         519|   -6.221984|   -8.794017|    0.824004|    0.011994|
|         520|   -6.235309|   -8.799180|    0.824004|    0.011993|
|         521|   -6.247531|   -8.803963|    0.824004|    0.011993|
|         522|   -6.258338|   -8.808328|    0.824004|    0.011993|
|         523|   -6.268373|   -8.812239|    0.824004|    0.011993|
|         524|   -6.278428|   -8.815667|    0.824004|    0.011993|
|         525|   -6.288839|   -8.818599|    0.824004|    0.011993|
|         526|   -6.299366|   -8.821034|    0.824004|    0.011993|
|         527|   -6.309435|   -8.822995|    0.824004|    0.011993|
|         528|   -6.318449|   -8.824513|    0.824004|    0.011993|
|         529|   -6.326006|   -8.825638|    0.824004|    0.011993|
|         530|   -6.331964|   -8.826423|    0.824004|    0.011993|
|         531|   -6.336449|   -8.826927|    0.824004|    0.011993|
|         532|   -6.339818|   -8.827207|    0.824004|    0.011993|
|         533|   -6.342596|   -8.827318|    0.824004|    0.011993|
|         534|   -6.345371|   -8.827305|    0.824004|    0.011993|
|         535|   -6.348681|   -8.827207|    0.824004|    0.011993|
|         536|   -6.352910|   -8.827057|    0.824004|    0.011993|
|         537|   -6.358243|   -8.826880|    0.824004|    0.011993|
|         538|   -6.364652|   -8.826693|    0.824004|    0.011993|
|         539|   -6.371922|   -8.826516|    0.824004|    0.011993|
|         540|   -6.379702|   -8.826362|    0.824004|    0.011993|
|         541|   -6.387570|   -8.826248|    0.824004|    0.011993|
|         542|   -6.395116|   -8.826189|    0.824004|    0.011993|
|         543|   -6.402032|   -8.826205|    0.824004|    0.011993|
|         544|   -6.408183|   -8.826314|    0.824004|    0.011993|
|         545|   -6.413624|   -8.826537|    0.824003|    0.011993|
|         546|   -6.418573|   -8.826895|    0.824003|    0.011993|
|         547|   -6.423334|   -8.827404|    0.824003|    0.011993|
|         548|   -6.428208|   -8.828079|    0.824003|    0.011993|
|         549|   -6.433420|   -8.828931|    0.824003|    0.011993|
|         550|   -6.439078|   -8.829963|    0.824003|    0.011993|
|         551|   -6.445162|   -8.831171|    0.824003|    0.011993|
|         552|   -6.451547|   -8.832546|    0.824003|    0.011993|
|         553|   -6.458041|   -8.834066|    0.824003|    0.011993|
|         554|   -6.464434|   -8.835705|    0.824003|    0.011993|
|         555|   -6.470532|   -8.837423|    0.824003|    0.011993|
|         556|   -6.476197|   -8.839176|    0.824002|    0.011993|
|         557|   -6.481353|   -8.840909|    0.824002|    0.011994|
|         558|   -6.485984|   -8.842566|    0.824002|    0.011994|
|         559|   -6.490122|   -8.844082|    0.824002|    0.011994|
|         560|   -6.493817|   -8.845398|    0.824002|    0.011994|
|         561|   -6.497124|   -8.846450|    0.824002|    0.011994|
|         562|   -6.500086|   -8.847189|    0.824002|    0.011994|
|         563|   -6.502730|   -8.847573|    0.824002|    0.011994|
|         564|   -6.505064|   -8.847570|    0.824002|    0.011994|
|         565|   -6.507089|   -8.847166|    0.824002|    0.011994|
|         566|   -6.508800|   -8.846369|    0.824001|    0.011994|
|         567|   -6.510197|   -8.845195|    0.824001|    0.011994|
|         568|   -6.511286|   -8.843682|    0.824001|    0.011994|
|         569|   -6.512084|   -8.841882|    0.824001|    0.011994|
|         570|   -6.512614|   -8.839862|    0.824001|    0.011994|
|         571|   -6.512906|   -8.837694|    0.824001|    0.011994|
|         572|   -6.512994|   -8.835457|    0.824001|    0.011994|
|         573|   -6.512913|   -8.833229|    0.824001|    0.011994|
|         574|   -6.512698|   -8.831088|    0.824001|    0.011994|
|         575|   -6.512383|   -8.829104|    0.824000|    0.011994|
|         576|   -6.512002|   -8.827339|    0.824000|    0.011994|
|         577|   -6.511588|   -8.825847|    0.824000|    0.011994|
|         578|   -6.511173|   -8.824667|    0.824000|    0.011994|
|         579|   -6.510787|   -8.823829|    0.824000|    0.011994|
|         580|   -6.510463|   -8.823346|    0.824000|    0.011995|
|         581|   -6.510229|   -8.823222|    0.824000|    0.011995|
|         582|   -6.510114|   -8.823446|    0.824000|    0.011995|
|         583|   -6.510147|   -8.823996|    0.824000|    0.011995|
|         584|   -6.510352|   -8.824839|    0.824000|    0.011995|
|         585|   -6.510753|   -8.825932|    0.824000|    0.011995|
|         586|   -6.511374|   -8.827226|    0.823999|    0.011995|
|         587|   -6.512232|   -8.828666|    0.823999|    0.011995|
|         588|   -6.513347|   -8.830193|    0.823999|    0.011995|
|         589|   -6.514733|   -8.831748|    0.823999|    0.011995|
|         590|   -6.516404|   -8.833275|    0.823999|    0.011995|
|         591|   -6.518371|   -8.834722|    0.823999|    0.011995|
|         592|   -6.520641|   -8.836042|    0.823999|    0.011995|
|         593|   -6.523222|   -8.837201|    0.823999|    0.011995|
|         594|   -6.526117|   -8.838171|    0.823999|    0.011995|
|         595|   -6.529325|   -8.838937|    0.823999|    0.011995|
|         596|   -6.532844|   -8.839495|    0.823999|    0.011995|
|         597|   -6.536669|   -8.839852|    0.823999|    0.011995|
|         598|   -6.540791|   -8.840022|    0.823999|    0.011995|
|         599|   -6.545198|   -8.840028|    0.823999|    0.011995|
|         600|   -6.549874|   -8.839897|    0.823999|    0.011995|
|         601|   -6.554801|   -8.839661|    0.823999|    0.011995|
+-----------------------------------------------------------------------+
|Fixed CL Mode                           |Value                         |
+-----------------------------------------------------------------------+
|Current CL                              |0.823999                      |
|Target CL                               |0.824                         |
|Previous AOA                            |2.7655                        |
|Changed AoA by                          |5.36319e-06                   |
+-----------------------------------------------------------------------+
+----------------------------------------------------------------+
|  Inner_Iter|    rms[Rho]|     rms[nu]|          CL|          CD|
+----------------------------------------------------------------+
|         602|   -5.462364|   -8.831556|    0.823999|    0.011995|
|         603|   -5.840812|   -8.835098|    0.823999|    0.011995|
|         604|   -6.072752|   -8.835885|    0.823999|    0.011995|
|         605|   -6.145664|   -8.836121|    0.823999|    0.011995|
|         606|   -6.193771|   -8.836169|    0.823999|    0.011995|
|         607|   -6.252953|   -8.836140|    0.823999|    0.011995|
|         608|   -6.320917|   -8.836088|    0.823999|    0.011995|
|         609|   -6.384595|   -8.836046|    0.823999|    0.011995|
|         610|   -6.432366|   -8.836029|    0.823999|    0.011995|
|         611|   -6.462823|   -8.836041|    0.823999|    0.011995|
|         612|   -6.481004|   -8.836081|    0.823999|    0.011995|
|         613|   -6.491314|   -8.836150|    0.823999|    0.011995|
|         614|   -6.496616|   -8.836252|    0.823999|    0.011995|
|         615|   -6.499764|   -8.836390|    0.823999|    0.011995|
|         616|   -6.503578|   -8.836562|    0.823999|    0.011995|
|         617|   -6.509813|   -8.836769|    0.823999|    0.011995|
|         618|   -6.518608|   -8.837011|    0.823999|    0.011994|
|         619|   -6.528801|   -8.837298|    0.823999|    0.011994|
|         620|   -6.538780|   -8.837642|    0.823999|    0.011994|
|         621|   -6.547385|   -8.838059|    0.823999|    0.011994|
|         622|   -6.554332|   -8.838565|    0.823999|    0.011994|
|         623|   -6.560020|   -8.839174|    0.823999|    0.011994|
|         624|   -6.565019|   -8.839905|    0.823999|    0.011994|
|         625|   -6.569686|   -8.840772|    0.823999|    0.011994|
|         626|   -6.574078|   -8.841790|    0.823999|    0.011994|
|         627|   -6.578070|   -8.842974|    0.823999|    0.011994|
|         628|   -6.581500|   -8.844332|    0.823999|    0.011994|
|         629|   -6.584251|   -8.845873|    0.823999|    0.011994|
|         630|   -6.586274|   -8.847599|    0.823999|    0.011994|
|         631|   -6.587594|   -8.849508|    0.823999|    0.011994|
|         632|   -6.588317|   -8.851593|    0.823999|    0.011994|
|         633|   -6.588623|   -8.853844|    0.823999|    0.011994|
|         634|   -6.588748|   -8.856245|    0.823999|    0.011994|
|         635|   -6.588931|   -8.858778|    0.823999|    0.011994|
|         636|   -6.589376|   -8.861423|    0.823999|    0.011994|
|         637|   -6.590216|   -8.864156|    0.823999|    0.011994|
|         638|   -6.591503|   -8.866955|    0.823999|    0.011994|
|         639|   -6.593218|   -8.869796|    0.823999|    0.011994|
|         640|   -6.595282|   -8.872660|    0.823999|    0.011994|
|         641|   -6.597591|   -8.875528|    0.823999|    0.011994|
|         642|   -6.600039|   -8.878385|    0.823999|    0.011994|
|         643|   -6.602555|   -8.881221|    0.823999|    0.011994|
|         644|   -6.605119|   -8.884031|    0.823999|    0.011994|
|         645|   -6.607766|   -8.886815|    0.823999|    0.011994|
|         646|   -6.610581|   -8.889577|    0.823999|    0.011994|
|         647|   -6.613670|   -8.892328|    0.823999|    0.011994|
|         648|   -6.617136|   -8.895082|    0.823999|    0.011994|
|         649|   -6.621058|   -8.897857|    0.823999|    0.011994|
|         650|   -6.625476|   -8.900673|    0.823999|    0.011994|
|         651|   -6.630388|   -8.903554|    0.823999|    0.011994|
|         652|   -6.635760|   -8.906524|    0.823999|    0.011994|
|         653|   -6.641537|   -8.909607|    0.823999|    0.011994|
|         654|   -6.647656|   -8.912827|    0.823999|    0.011994|
|         655|   -6.654059|   -8.916206|    0.823999|    0.011994|
|         656|   -6.660702|   -8.919764|    0.823999|    0.011994|
|         657|   -6.667558|   -8.923515|    0.824000|    0.011994|
|         658|   -6.674613|   -8.927473|    0.824000|    0.011994|
|         659|   -6.681867|   -8.931643|    0.824000|    0.011994|
|         660|   -6.689319|   -8.936030|    0.824000|    0.011994|
|         661|   -6.696967|   -8.940628|    0.824000|    0.011994|
|         662|   -6.704800|   -8.945429|    0.824000|    0.011994|
|         663|   -6.712800|   -8.950419|    0.824000|    0.011994|
|         664|   -6.720933|   -8.955577|    0.824000|    0.011994|
|         665|   -6.729159|   -8.960879|    0.824000|    0.011994|
|         666|   -6.737430|   -8.966297|    0.824000|    0.011994|
|         667|   -6.745691|   -8.971796|    0.824000|    0.011994|
|         668|   -6.753885|   -8.977341|    0.824001|    0.011994|
|         669|   -6.761953|   -8.982895|    0.824001|    0.011994|
|         670|   -6.769834|   -8.988419|    0.824001|    0.011994|
|         671|   -6.777467|   -8.993878|    0.824001|    0.011994|
|         672|   -6.784791|   -8.999234|    0.824001|    0.011994|
|         673|   -6.791747|   -9.004458|    0.824001|    0.011994|
|         674|   -6.798278|   -9.009524|    0.824001|    0.011994|
|         675|   -6.804329|   -9.014410|    0.824001|    0.011994|
|         676|   -6.809854|   -9.019103|    0.824001|    0.011994|
|         677|   -6.814814|   -9.023599|    0.824001|    0.011994|
|         678|   -6.819179|   -9.027899|    0.824001|    0.011994|
|         679|   -6.822932|   -9.032013|    0.824001|    0.011994|
|         680|   -6.826067|   -9.035959|    0.824001|    0.011994|
|         681|   -6.828593|   -9.039760|    0.824001|    0.011994|
|         682|   -6.830530|   -9.043444|    0.824001|    0.011994|
|         683|   -6.831912|   -9.047045|    0.824001|    0.011994|
|         684|   -6.832782|   -9.050596|    0.824001|    0.011994|
|         685|   -6.833192|   -9.054134|    0.824001|    0.011995|
|         686|   -6.833204|   -9.057695|    0.824001|    0.011995|
|         687|   -6.832882|   -9.061313|    0.824001|    0.011995|
|         688|   -6.832296|   -9.065018|    0.824001|    0.011995|
|         689|   -6.831514|   -9.068837|    0.824001|    0.011995|
|         690|   -6.830609|   -9.072794|    0.824001|    0.011995|
|         691|   -6.829647|   -9.076905|    0.824001|    0.011995|
|         692|   -6.828696|   -9.081183|    0.824001|    0.011995|
|         693|   -6.827817|   -9.085632|    0.824001|    0.011995|
|         694|   -6.827068|   -9.090254|    0.824001|    0.011995|
|         695|   -6.826503|   -9.095042|    0.824001|    0.011995|
|         696|   -6.826171|   -9.099985|    0.824001|    0.011995|
|         697|   -6.826114|   -9.105068|    0.824001|    0.011995|
|         698|   -6.826372|   -9.110271|    0.824001|    0.011995|
|         699|   -6.826979|   -9.115571|    0.824001|    0.011995|
|         700|   -6.827962|   -9.120940|    0.824001|    0.011995|
|         701|   -6.829348|   -9.126351|    0.824001|    0.011995|
+-----------------------------------------------------------------------+
|Fixed CL Mode                           |Value                         |
+-----------------------------------------------------------------------+
|Current CL                              |0.824001                      |
|Target CL                               |0.824                         |
|Previous AOA                            |2.76551                       |
|Changed AoA by                          |-4.03535e-06                  |
+-----------------------------------------------------------------------+
+----------------------------------------------------------------+
|  Inner_Iter|    rms[Rho]|     rms[nu]|          CL|          CD|
+----------------------------------------------------------------+
|         702|   -5.587083|   -9.116548|    0.824001|    0.011995|
|         703|   -5.970556|   -9.129549|    0.824001|    0.011995|
|         704|   -6.212584|   -9.136893|    0.824001|    0.011995|
|         705|   -6.289108|   -9.143173|    0.824000|    0.011995|
|         706|   -6.338971|   -9.149096|    0.824000|    0.011995|
|         707|   -6.401967|   -9.154777|    0.824000|    0.011995|
|         708|   -6.476872|   -9.160200|    0.824000|    0.011995|
|         709|   -6.550010|   -9.165331|    0.824000|    0.011995|
|         710|   -6.607231|   -9.170142|    0.824000|    0.011995|
|         711|   -6.644853|   -9.174616|    0.824000|    0.011995|
|         712|   -6.667581|   -9.178756|    0.824000|    0.011995|
|         713|   -6.680338|   -9.182595|    0.824000|    0.011995|
|         714|   -6.686664|   -9.186185|    0.824000|    0.011995|
|         715|   -6.690378|   -9.189573|    0.824000|    0.011995|
|         716|   -6.695332|   -9.192790|    0.824000|    0.011995|
|         717|   -6.703981|   -9.195852|    0.824000|    0.011995|
|         718|   -6.716657|   -9.198775|    0.824000|    0.011995|
|         719|   -6.731921|   -9.201574|    0.824000|    0.011995|
|         720|   -6.747614|   -9.204265|    0.824000|    0.011995|
|         721|   -6.762057|   -9.206860|    0.824000|    0.011995|
|         722|   -6.774757|   -9.209364|    0.823999|    0.011995|
|         723|   -6.786252|   -9.211775|    0.823999|    0.011995|
|         724|   -6.797399|   -9.214088|    0.823999|    0.011995|
|         725|   -6.808754|   -9.216299|    0.823999|    0.011995|
|         726|   -6.820388|   -9.218406|    0.823999|    0.011995|
|         727|   -6.832018|   -9.220408|    0.823999|    0.011995|
|         728|   -6.843233|   -9.222308|    0.823999|    0.011995|
|         729|   -6.853639|   -9.224110|    0.823999|    0.011995|
|         730|   -6.862938|   -9.225821|    0.823999|    0.011995|
|         731|   -6.870970|   -9.227453|    0.823999|    0.011995|
|         732|   -6.877762|   -9.229018|    0.823999|    0.011995|
|         733|   -6.883544|   -9.230532|    0.823999|    0.011995|
|         734|   -6.888714|   -9.232014|    0.823999|    0.011995|
|         735|   -6.893730|   -9.233484|    0.823999|    0.011994|
|         736|   -6.898998|   -9.234964|    0.823999|    0.011994|
|         737|   -6.904782|   -9.236477|    0.823999|    0.011994|
|         738|   -6.911158|   -9.238046|    0.823999|    0.011994|
|         739|   -6.918015|   -9.239694|    0.823999|    0.011994|
|         740|   -6.925086|   -9.241445|    0.823999|    0.011994|
|         741|   -6.932007|   -9.243319|    0.823999|    0.011994|
|         742|   -6.938402|   -9.245338|    0.823999|    0.011994|
|         743|   -6.943982|   -9.247521|    0.823999|    0.011994|
|         744|   -6.948617|   -9.249886|    0.823999|    0.011994|
|         745|   -6.952369|   -9.252450|    0.823999|    0.011994|
|         746|   -6.955463|   -9.255226|    0.823999|    0.011994|
|         747|   -6.958215|   -9.258226|    0.823999|    0.011994|
|         748|   -6.960944|   -9.261458|    0.823999|    0.011994|
|         749|   -6.963899|   -9.264928|    0.823999|    0.011994|
|         750|   -6.967216|   -9.268637|    0.823999|    0.011994|
|         751|   -6.970918|   -9.272588|    0.823999|    0.011994|
|         752|   -6.974927|   -9.276778|    0.823999|    0.011994|
|         753|   -6.979109|   -9.281204|    0.823999|    0.011994|
|         754|   -6.983313|   -9.285862|    0.823999|    0.011994|
|         755|   -6.987406|   -9.290748|    0.823999|    0.011994|
|         756|   -6.991298|   -9.295856|    0.823999|    0.011994|
|         757|   -6.994953|   -9.301181|    0.823999|    0.011994|
|         758|   -6.998380|   -9.306720|    0.823999|    0.011994|
|         759|   -7.001620|   -9.312470|    0.823999|    0.011994|
|         760|   -7.004728|   -9.318427|    0.823999|    0.011994|
|         761|   -7.007755|   -9.324592|    0.823999|    0.011994|
|         762|   -7.010734|   -9.330967|    0.823999|    0.011994|
|         763|   -7.013682|   -9.337551|    0.823999|    0.011994|
|         764|   -7.016595|   -9.344346|    0.823999|    0.011994|
|         765|   -7.019456|   -9.351357|    0.823999|    0.011994|
|         766|   -7.022238|   -9.358584|    0.823999|    0.011994|
|         767|   -7.024912|   -9.366029|    0.823999|    0.011994|
|         768|   -7.027452|   -9.373690|    0.823999|    0.011994|
|         769|   -7.029831|   -9.381563|    0.823999|    0.011994|
|         770|   -7.032031|   -9.389639|    0.823999|    0.011994|
|         771|   -7.034032|   -9.397901|    0.823999|    0.011994|
|         772|   -7.035819|   -9.406331|    0.823999|    0.011994|
|         773|   -7.037378|   -9.414899|    0.823999|    0.011994|
|         774|   -7.038695|   -9.423572|    0.823999|    0.011994|
|         775|   -7.039759|   -9.432307|    0.823999|    0.011994|
|         776|   -7.040561|   -9.441057|    0.823999|    0.011994|
|         777|   -7.041093|   -9.449771|    0.823999|    0.011994|
|         778|   -7.041354|   -9.458390|    0.823999|    0.011994|
|         779|   -7.041345|   -9.466860|    0.823999|    0.011994|
|         780|   -7.041071|   -9.475121|    0.823999|    0.011994|
|         781|   -7.040544|   -9.483123|    0.823999|    0.011994|
|         782|   -7.039776|   -9.490817|    0.823999|    0.011994|
|         783|   -7.038787|   -9.498165|    0.823999|    0.011994|
|         784|   -7.037598|   -9.505138|    0.823999|    0.011994|
|         785|   -7.036233|   -9.511716|    0.823999|    0.011994|
|         786|   -7.034719|   -9.517894|    0.823999|    0.011994|
|         787|   -7.033083|   -9.523675|    0.823999|    0.011994|
|         788|   -7.031357|   -9.529072|    0.823999|    0.011994|
|         789|   -7.029570|   -9.534105|    0.823999|    0.011994|
|         790|   -7.027754|   -9.538800|    0.823999|    0.011994|
|         791|   -7.025941|   -9.543183|    0.823999|    0.011994|
|         792|   -7.024159|   -9.547283|    0.823999|    0.011994|
|         793|   -7.022440|   -9.551123|    0.823999|    0.011994|
|         794|   -7.020810|   -9.554724|    0.823999|    0.011994|
|         795|   -7.019294|   -9.558100|    0.823999|    0.011994|
|         796|   -7.017917|   -9.561259|    0.823999|    0.011994|
|         797|   -7.016697|   -9.564203|    0.823999|    0.011994|
|         798|   -7.015653|   -9.566929|    0.823999|    0.011994|
|         799|   -7.014798|   -9.569428|    0.823999|    0.011994|
|         800|   -7.014143|   -9.571690|    0.823999|    0.011994|
|         801|   -7.013694|   -9.573702|    0.823999|    0.011994|
+-----------------------------------------------------------------------+
|Fixed CL Mode                           |Value                         |
+-----------------------------------------------------------------------+
|Current CL                              |0.823999                      |
|Target CL                               |0.824                         |
|Previous AOA                            |2.76551                       |
|Changed AoA by                          |3.03135e-06                   |
+-----------------------------------------------------------------------+
+----------------------------------------------------------------+
|  Inner_Iter|    rms[Rho]|     rms[nu]|          CL|          CD|
+----------------------------------------------------------------+
|         802|   -5.711120|   -9.510756|    0.823999|    0.011995|
|         803|   -6.092325|   -9.542234|    0.823999|    0.011995|
|         804|   -6.328046|   -9.553260|    0.823999|    0.011995|
|         805|   -6.401843|   -9.559633|    0.823999|    0.011995|
|         806|   -6.451760|   -9.564014|    0.823999|    0.011995|
|         807|   -6.515545|   -9.567149|    0.823999|    0.011995|
|         808|   -6.591925|   -9.569410|    0.823999|    0.011995|
|         809|   -6.667853|   -9.571083|    0.823999|    0.011995|
|         810|   -6.729341|   -9.572359|    0.823999|    0.011995|
|         811|   -6.771766|   -9.573334|    0.823999|    0.011995|
|         812|   -6.798623|   -9.574074|    0.823999|    0.011995|
|         813|   -6.814089|   -9.574676|    0.823999|    0.011995|
|         814|   -6.821439|   -9.575257|    0.823999|    0.011995|
|         815|   -6.824652|   -9.575901|    0.823999|    0.011995|
|         816|   -6.827968|   -9.576649|    0.823999|    0.011995|
|         817|   -6.834184|   -9.577516|    0.823999|    0.011995|
|         818|   -6.843837|   -9.578527|    0.823999|    0.011995|
|         819|   -6.855633|   -9.579730|    0.823999|    0.011995|
|         820|   -6.867593|   -9.581182|    0.823999|    0.011995|
|         821|   -6.878243|   -9.582935|    0.823999|    0.011995|
|         822|   -6.887222|   -9.585014|    0.823999|    0.011995|
|         823|   -6.895036|   -9.587422|    0.823999|    0.011995|
|         824|   -6.902359|   -9.590144|    0.823999|    0.011995|
|         825|   -6.909514|   -9.593153|    0.823999|    0.011995|
|         826|   -6.916383|   -9.596414|    0.823999|    0.011995|
|         827|   -6.922605|   -9.599893|    0.823999|    0.011995|
|         828|   -6.927811|   -9.603549|    0.823999|    0.011995|
|         829|   -6.931770|   -9.607336|    0.823999|    0.011995|
|         830|   -6.934415|   -9.611199|    0.823999|    0.011995|
|         831|   -6.935833|   -9.615077|    0.823999|    0.011995|
|         832|   -6.936249|   -9.618901|    0.823999|    0.011995|
|         833|   -6.935989|   -9.622595|    0.823999|    0.011995|
|         834|   -6.935427|   -9.626073|    0.823999|    0.011995|
|         835|   -6.934911|   -9.629246|    0.823999|    0.011995|
|         836|   -6.934699|   -9.632021|    0.823999|    0.011995|
|         837|   -6.934924|   -9.634305|    0.823999|    0.011995|
|         838|   -6.935587|   -9.636009|    0.823999|    0.011995|
|         839|   -6.936585|   -9.637055|    0.823999|    0.011995|
|         840|   -6.937744|   -9.637378|    0.823999|    0.011995|
|         841|   -6.938868|   -9.636931|    0.823999|    0.011995|
|         842|   -6.939787|   -9.635690|    0.823999|    0.011995|
|         843|   -6.940397|   -9.633654|    0.823999|    0.011995|
|         844|   -6.940695|   -9.630847|    0.823999|    0.011995|
|         845|   -6.940770|   -9.627314|    0.823999|    0.011995|
|         846|   -6.940779|   -9.623123|    0.823999|    0.011995|
|         847|   -6.940908|   -9.618357|    0.823999|    0.011995|
|         848|   -6.941328|   -9.613113|    0.823999|    0.011995|
|         849|   -6.942159|   -9.607498|    0.823999|    0.011995|
|         850|   -6.943460|   -9.601618|    0.823999|    0.011995|
|         851|   -6.945229|   -9.595597|    0.823999|    0.011995|
|         852|   -6.947417|   -9.589547|    0.823999|    0.011994|
|         853|   -6.949948|   -9.583577|    0.823999|    0.011994|
|         854|   -6.952741|   -9.577793|    0.823999|    0.011994|
|         855|   -6.955726|   -9.572298|    0.823999|    0.011994|
|         856|   -6.958856|   -9.567185|    0.823999|    0.011994|
|         857|   -6.962106|   -9.562543|    0.823999|    0.011994|
|         858|   -6.965470|   -9.558449|    0.823999|    0.011994|
|         859|   -6.968957|   -9.554975|    0.823999|    0.011994|
|         860|   -6.972577|   -9.552184|    0.823999|    0.011994|
|         861|   -6.976334|   -9.550131|    0.823999|    0.011994|
|         862|   -6.980224|   -9.548860|    0.823999|    0.011994|
|         863|   -6.984230|   -9.548411|    0.823999|    0.011994|
|         864|   -6.988323|   -9.548811|    0.823999|    0.011994|
|         865|   -6.992464|   -9.550080|    0.823999|    0.011994|
|         866|   -6.996611|   -9.552227|    0.823999|    0.011994|
|         867|   -7.000713|   -9.555250|    0.823999|    0.011994|
|         868|   -7.004725|   -9.559134|    0.823999|    0.011994|
|         869|   -7.008597|   -9.563853|    0.823999|    0.011994|
|         870|   -7.012283|   -9.569362|    0.823999|    0.011994|
|         871|   -7.015741|   -9.575603|    0.823999|    0.011994|
|         872|   -7.018928|   -9.582498|    0.823999|    0.011994|
|         873|   -7.021805|   -9.589950|    0.823999|    0.011994|
|         874|   -7.024337|   -9.597843|    0.823999|    0.011994|
|         875|   -7.026493|   -9.606040|    0.823999|    0.011994|
|         876|   -7.028248|   -9.614386|    0.823999|    0.011994|
|         877|   -7.029583|   -9.622710|    0.823999|    0.011994|
|         878|   -7.030486|   -9.630832|    0.823999|    0.011994|
|         879|   -7.030954|   -9.638567|    0.824000|    0.011994|
|         880|   -7.030994|   -9.645736|    0.824000|    0.011994|
|         881|   -7.030619|   -9.652176|    0.824000|    0.011994|
|         882|   -7.029850|   -9.657752|    0.824000|    0.011994|
|         883|   -7.028716|   -9.662365|    0.824000|    0.011994|
|         884|   -7.027252|   -9.665962|    0.824000|    0.011994|
|         885|   -7.025498|   -9.668538|    0.824000|    0.011994|
|         886|   -7.023496|   -9.670134|    0.824000|    0.011994|
|         887|   -7.021293|   -9.670838|    0.824000|    0.011994|
|         888|   -7.018937|   -9.670768|    0.824000|    0.011994|
|         889|   -7.016474|   -9.670069|    0.824000|    0.011994|
|         890|   -7.013951|   -9.668897|    0.824000|    0.011994|
|         891|   -7.011414|   -9.667411|    0.824000|    0.011994|
|         892|   -7.008905|   -9.665764|    0.824000|    0.011994|
|         893|   -7.006465|   -9.664092|    0.824000|    0.011994|
|         894|   -7.004132|   -9.662516|    0.824000|    0.011994|
|         895|   -7.001938|   -9.661134|    0.824000|    0.011994|
|         896|   -6.999915|   -9.660021|    0.824000|    0.011994|
|         897|   -6.998089|   -9.659230|    0.824000|    0.011994|
|         898|   -6.996485|   -9.658793|    0.824000|    0.011994|
|         899|   -6.995122|   -9.658724|    0.824000|    0.011994|
|         900|   -6.994018|   -9.659017|    0.824000|    0.011994|
|         901|   -6.993187|   -9.659653|    0.824000|    0.011994|
|         902|   -6.992642|   -9.660597|    0.824000|    0.011994|
|         903|   -6.992391|   -9.661809|    0.824000|    0.011994|
|         904|   -6.992442|   -9.663238|    0.824000|    0.011994|
|         905|   -6.992800|   -9.664831|    0.824000|    0.011994|
|         906|   -6.993467|   -9.666530|    0.824000|    0.011994|
|         907|   -6.994446|   -9.668281|    0.824000|    0.011994|
[...]
|        5298|   -6.047543|   -7.932457|    0.824239|    0.011999|
|        5299|   -6.054250|   -7.936376|    0.824240|    0.011999|
|        5300|   -6.060523|   -7.940359|    0.824240|    0.011999|
|        5301|   -6.066327|   -7.944415|    0.824240|    0.011998|
|        5302|   -6.071644|   -7.948546|    0.824240|    0.011998|
|        5303|   -6.076464|   -7.952754|    0.824240|    0.011998|
|        5304|   -6.080793|   -7.957038|    0.824240|    0.011998|
|        5305|   -6.084650|   -7.961394|    0.824240|    0.011998|
|        5306|   -6.088063|   -7.965818|    0.824240|    0.011998|
|        5307|   -6.091072|   -7.970306|    0.824240|    0.011998|
|        5308|   -6.093726|   -7.974851|    0.824240|    0.011998|
|        5309|   -6.096077|   -7.979449|    0.824241|    0.011998|
|        5310|   -6.098185|   -7.984094|    0.824241|    0.011998|
|        5311|   -6.100108|   -7.988782|    0.824241|    0.011998|
|        5312|   -6.101909|   -7.993510|    0.824241|    0.011998|
|        5313|   -6.103647|   -7.998276|    0.824241|    0.011998|
|        5314|   -6.105377|   -8.003078|    0.824241|    0.011998|
|        5315|   -6.107152|   -8.007918|    0.824241|    0.011998|
|        5316|   -6.109021|   -8.012796|    0.824241|    0.011998|
|        5317|   -6.111024|   -8.017719|    0.824242|    0.011998|
|        5318|   -6.113199|   -8.022691|    0.824242|    0.011998|
|        5319|   -6.115573|   -8.027715|    0.824242|    0.011998|
|        5320|   -6.118169|   -8.032794|    0.824242|    0.011998|
|        5321|   -6.121005|   -8.037931|    0.824242|    0.011998|
|        5322|   -6.124090|   -8.043127|    0.824242|    0.011998|
|        5323|   -6.127425|   -8.048384|    0.824242|    0.011998|
|        5324|   -6.131008|   -8.053703|    0.824243|    0.011999|
|        5325|   -6.134827|   -8.059084|    0.824243|    0.011999|
|        5326|   -6.138865|   -8.064528|    0.824243|    0.011999|
|        5327|   -6.143100|   -8.070034|    0.824243|    0.011999|
|        5328|   -6.147502|   -8.075599|    0.824243|    0.011999|
|        5329|   -6.152038|   -8.081220|    0.824243|    0.011999|
|        5330|   -6.156671|   -8.086895|    0.824244|    0.011999|
|        5331|   -6.161359|   -8.092618|    0.824244|    0.011999|
|        5332|   -6.166058|   -8.098384|    0.824244|    0.011999|
|        5333|   -6.170722|   -8.104189|    0.824244|    0.011999|
|        5334|   -6.175306|   -8.110028|    0.824244|    0.011999|
|        5335|   -6.179765|   -8.115900|    0.824244|    0.011999|
|        5336|   -6.184057|   -8.121800|    0.824245|    0.011999|
|        5337|   -6.188144|   -8.127727|    0.824245|    0.012000|
|        5338|   -6.191995|   -8.133677|    0.824245|    0.012000|
|        5339|   -6.195584|   -8.139651|    0.824245|    0.012000|
|        5340|   -6.198894|   -8.145646|    0.824245|    0.012000|
|        5341|   -6.201915|   -8.151664|    0.824245|    0.012000|
|        5342|   -6.204647|   -8.157703|    0.824246|    0.012000|
|        5343|   -6.207100|   -8.163766|    0.824246|    0.012000|
|        5344|   -6.209289|   -8.169853|    0.824246|    0.012000|
|        5345|   -6.211240|   -8.175967|    0.824246|    0.012000|
|        5346|   -6.212984|   -8.182110|    0.824246|    0.012000|
|        5347|   -6.214560|   -8.188283|    0.824246|    0.012000|
|        5348|   -6.216007|   -8.194489|    0.824246|    0.012000|
|        5349|   -6.217372|   -8.200731|    0.824246|    0.012000|
|        5350|   -6.218698|   -8.207011|    0.824247|    0.012001|
|        5351|   -6.220034|   -8.213329|    0.824247|    0.012001|
|        5352|   -6.221423|   -8.219689|    0.824247|    0.012001|
|        5353|   -6.222910|   -8.226090|    0.824247|    0.012001|
|        5354|   -6.224534|   -8.232533|    0.824247|    0.012001|
|        5355|   -6.226335|   -8.239018|    0.824247|    0.012001|
|        5356|   -6.228345|   -8.245544|    0.824247|    0.012001|
|        5357|   -6.230593|   -8.252108|    0.824247|    0.012001|
|        5358|   -6.233105|   -8.258710|    0.824247|    0.012001|
|        5359|   -6.235901|   -8.265345|    0.824247|    0.012001|
|        5360|   -6.238995|   -8.272010|    0.824247|    0.012001|
|        5361|   -6.242399|   -8.278700|    0.824247|    0.012001|
|        5362|   -6.246117|   -8.285411|    0.824248|    0.012001|
|        5363|   -6.250150|   -8.292136|    0.824248|    0.012001|
|        5364|   -6.254493|   -8.298869|    0.824248|    0.012001|
|        5365|   -6.259136|   -8.305605|    0.824248|    0.012001|
|        5366|   -6.264064|   -8.312337|    0.824248|    0.012001|
|        5367|   -6.269258|   -8.319059|    0.824248|    0.012001|
|        5368|   -6.274693|   -8.325766|    0.824248|    0.012001|
|        5369|   -6.280339|   -8.332449|    0.824248|    0.012001|
|        5370|   -6.286163|   -8.339106|    0.824248|    0.012001|
|        5371|   -6.292127|   -8.345728|    0.824248|    0.012001|
|        5372|   -6.298189|   -8.352314|    0.824248|    0.012001|
|        5373|   -6.304304|   -8.358858|    0.824248|    0.012001|
|        5374|   -6.310424|   -8.365358|    0.824248|    0.012001|
|        5375|   -6.316500|   -8.371812|    0.824248|    0.012001|
|        5376|   -6.322483|   -8.378222|    0.824248|    0.012001|
|        5377|   -6.328323|   -8.384589|    0.824248|    0.012001|
|        5378|   -6.333971|   -8.390915|    0.824248|    0.012000|
|        5379|   -6.339384|   -8.397205|    0.824248|    0.012000|
|        5380|   -6.344519|   -8.403464|    0.824248|    0.012000|
|        5381|   -6.349341|   -8.409698|    0.824248|    0.012000|
|        5382|   -6.353819|   -8.415914|    0.824248|    0.012000|
|        5383|   -6.357930|   -8.422121|    0.824248|    0.012000|
|        5384|   -6.361659|   -8.428325|    0.824248|    0.012000|
|        5385|   -6.364998|   -8.434535|    0.824248|    0.012000|
|        5386|   -6.367945|   -8.440758|    0.824248|    0.012000|
|        5387|   -6.370507|   -8.447000|    0.824248|    0.012000|
|        5388|   -6.372696|   -8.453268|    0.824248|    0.012000|
|        5389|   -6.374530|   -8.459565|    0.824248|    0.012000|
|        5390|   -6.376031|   -8.465895|    0.824248|    0.012000|
|        5391|   -6.377223|   -8.472257|    0.824248|    0.011999|
|        5392|   -6.378135|   -8.478651|    0.824249|    0.011999|
|        5393|   -6.378794|   -8.485071|    0.824249|    0.011999|
|        5394|   -6.379227|   -8.491510|    0.824249|    0.011999|
|        5395|   -6.379462|   -8.497959|    0.824249|    0.011999|
|        5396|   -6.379524|   -8.504405|    0.824249|    0.011999|
|        5397|   -6.379437|   -8.510831|    0.824249|    0.011999|
|        5398|   -6.379219|   -8.517221|    0.824249|    0.011999|
|        5399|   -6.378891|   -8.523555|    0.824250|    0.011999|
|        5400|   -6.378466|   -8.529809|    0.824250|    0.011999|
|        5401|   -6.377958|   -8.535963|    0.824250|    0.011998|
|        5402|   -6.377378|   -8.541992|    0.824250|    0.011998|
|        5403|   -6.376733|   -8.547873|    0.824250|    0.011998|
|        5404|   -6.376031|   -8.553584|    0.824250|    0.011998|
|        5405|   -6.375276|   -8.559105|    0.824251|    0.011998|
|        5406|   -6.374472|   -8.564417|    0.824251|    0.011998|
|        5407|   -6.373623|   -8.569504|    0.824251|    0.011998|
|        5408|   -6.372730|   -8.574355|    0.824251|    0.011998|
|        5409|   -6.371797|   -8.578960|    0.824251|    0.011998|
|        5410|   -6.370825|   -8.583315|    0.824251|    0.011998|
|        5411|   -6.369816|   -8.587418|    0.824252|    0.011998|
|        5412|   -6.368774|   -8.591271|    0.824252|    0.011997|
|        5413|   -6.367701|   -8.594880|    0.824252|    0.011997|
|        5414|   -6.366600|   -8.598252|    0.824252|    0.011997|
|        5415|   -6.365477|   -8.601398|    0.824252|    0.011997|
|        5416|   -6.364335|   -8.604328|    0.824252|    0.011997|
|        5417|   -6.363179|   -8.607055|    0.824253|    0.011997|
|        5418|   -6.362017|   -8.609590|    0.824253|    0.011997|
|        5419|   -6.360854|   -8.611946|    0.824253|    0.011997|
|        5420|   -6.359698|   -8.614134|    0.824253|    0.011997|
|        5421|   -6.358558|   -8.616163|    0.824253|    0.011997|
|        5422|   -6.357441|   -8.618042|    0.824253|    0.011997|
|        5423|   -6.356358|   -8.619778|    0.824254|    0.011997|
|        5424|   -6.355319|   -8.621377|    0.824254|    0.011997|
|        5425|   -6.354336|   -8.622844|    0.824254|    0.011997|
|        5426|   -6.353420|   -8.624182|    0.824254|    0.011997|
|        5427|   -6.352585|   -8.625394|    0.824254|    0.011997|
|        5428|   -6.351843|   -8.626485|    0.824254|    0.011997|
|        5429|   -6.351209|   -8.627456|    0.824254|    0.011997|
|        5430|   -6.350698|   -8.628311|    0.824254|    0.011997|
|        5431|   -6.350324|   -8.629056|    0.824255|    0.011997|
|        5432|   -6.350103|   -8.629697|    0.824255|    0.011997|
|        5433|   -6.350051|   -8.630242|    0.824255|    0.011997|
|        5434|   -6.350182|   -8.630699|    0.824255|    0.011997|
|        5435|   -6.350513|   -8.631079|    0.824255|    0.011997|
|        5436|   -6.351058|   -8.631395|    0.824255|    0.011997|
|        5437|   -6.351830|   -8.631661|    0.824255|    0.011997|
|        5438|   -6.352844|   -8.631893|    0.824255|    0.011997|
|        5439|   -6.354110|   -8.632109|    0.824255|    0.011997|
|        5440|   -6.355640|   -8.632326|    0.824255|    0.011997|
|        5441|   -6.357443|   -8.632560|    0.824255|    0.011997|
|        5442|   -6.359526|   -8.632828|    0.824256|    0.011997|
|        5443|   -6.361893|   -8.633147|    0.824256|    0.011997|
|        5444|   -6.364548|   -8.633531|    0.824256|    0.011997|
|        5445|   -6.367491|   -8.633996|    0.824256|    0.011997|
|        5446|   -6.370720|   -8.634554|    0.824256|    0.011997|
|        5447|   -6.374229|   -8.635218|    0.824256|    0.011997|
|        5448|   -6.378009|   -8.635998|    0.824256|    0.011997|
|        5449|   -6.382049|   -8.636902|    0.824256|    0.011997|
|        5450|   -6.386334|   -8.637936|    0.824256|    0.011997|
|        5451|   -6.390845|   -8.639107|    0.824256|    0.011997|
|        5452|   -6.395561|   -8.640416|    0.824256|    0.011997|
|        5453|   -6.400455|   -8.641868|    0.824256|    0.011998|
|        5454|   -6.405497|   -8.643460|    0.824256|    0.011998|
|        5455|   -6.410655|   -8.645193|    0.824256|    0.011998|
|        5456|   -6.415892|   -8.647063|    0.824256|    0.011998|
|        5457|   -6.421169|   -8.649068|    0.824256|    0.011998|
|        5458|   -6.426446|   -8.651203|    0.824256|    0.011998|
|        5459|   -6.431677|   -8.653464|    0.824256|    0.011998|
|        5460|   -6.436818|   -8.655845|    0.824256|    0.011998|
|        5461|   -6.441823|   -8.658341|    0.824256|    0.011998|
|        5462|   -6.446647|   -8.660945|    0.824256|    0.011998|
|        5463|   -6.451247|   -8.663654|    0.824256|    0.011998|
|        5464|   -6.455580|   -8.666461|    0.824256|    0.011998|
|        5465|   -6.459608|   -8.669361|    0.824256|    0.011999|
|        5466|   -6.463296|   -8.672351|    0.824256|    0.011999|
|        5467|   -6.466615|   -8.675423|    0.824256|    0.011999|
|        5468|   -6.469543|   -8.678574|    0.824256|    0.011999|
|        5469|   -6.472061|   -8.681797|    0.824255|    0.011999|
|        5470|   -6.474163|   -8.685088|    0.824255|    0.011999|
|        5471|   -6.475845|   -8.688441|    0.824255|    0.011999|
|        5472|   -6.477115|   -8.691852|    0.824255|    0.011999|
|        5473|   -6.477983|   -8.695316|    0.824255|    0.011999|
|        5474|   -6.478470|   -8.698829|    0.824255|    0.011999|
|        5475|   -6.478599|   -8.702387|    0.824255|    0.011999|
|        5476|   -6.478401|   -8.705986|    0.824255|    0.011999|
|        5477|   -6.477908|   -8.709622|    0.824255|    0.011999|
|        5478|   -6.477156|   -8.713290|    0.824255|    0.011999|
|        5479|   -6.476183|   -8.716985|    0.824255|    0.012000|
|        5480|   -6.475029|   -8.720704|    0.824254|    0.012000|
|        5481|   -6.473732|   -8.724439|    0.824254|    0.012000|
|        5482|   -6.472330|   -8.728187|    0.824254|    0.012000|
|        5483|   -6.470860|   -8.731941|    0.824254|    0.012000|
|        5484|   -6.469359|   -8.735695|    0.824254|    0.012000|
|        5485|   -6.467859|   -8.739445|    0.824254|    0.012000|
|        5486|   -6.466391|   -8.743184|    0.824254|    0.012000|
|        5487|   -6.464984|   -8.746907|    0.824254|    0.012000|
|        5488|   -6.463664|   -8.750611|    0.824254|    0.012000|
|        5489|   -6.462453|   -8.754291|    0.824253|    0.012000|
|        5490|   -6.461372|   -8.757944|    0.824253|    0.012000|
|        5491|   -6.460438|   -8.761568|    0.824253|    0.012000|
|        5492|   -6.459667|   -8.765160|    0.824253|    0.012000|
|        5493|   -6.459071|   -8.768720|    0.824253|    0.012000|
|        5494|   -6.458661|   -8.772248|    0.824253|    0.012000|
|        5495|   -6.458445|   -8.775745|    0.824253|    0.012000|
|        5496|   -6.458430|   -8.779213|    0.824253|    0.012000|
|        5497|   -6.458620|   -8.782653|    0.824253|    0.012000|
|        5498|   -6.459019|   -8.786069|    0.824253|    0.012000|
|        5499|   -6.459628|   -8.789464|    0.824253|    0.011985|
+-----------------------------------------------------------------------+
|Fixed CL Mode (Finite Difference)       |Value                         |
+-----------------------------------------------------------------------+
|Delta CL / Delta AoA                    |0.252368                      |
|Delta CD / Delta CL                     |0.0206225                     |
|Delta CMz / Delta CL                    |0.0162006                     |
+-----------------------------------------------------------------------+
Writing Flow Meta-Data file: flow.meta

----------------------------- Solver Exit -------------------------------

Maximum number of iterations reached (ITER = 5500) before convergence.
+-----------------------------------------------------------------------+
|      Convergence Field     |     Value    |   Criterion  |  Converged |
+-----------------------------------------------------------------------+
|                    rms[Rho]|      -6.45963|         < -12|          No|
+-----------------------------------------------------------------------+
-------------------------------------------------------------------------

--------------------------- Finalizing Solver ---------------------------
Deleted CNumerics container.
Deleted CIntegration container.
Deleted CSolver container.
Deleted CIteration container.
Deleted CInterface container.
Deleted CGeometry container.
Deleted CFreeFormDefBox class.
Deleted CSurfaceMovement class.
Deleted CVolumetricMovement class.
Deleted CConfig container.
Deleted nInst container.
Deleted COutput class.
-------------------------------------------------------------------------

------------------------- Exit Success (SU2_CFD) ------------------------


-------------------------------------------------------------------------
|    ___ _   _ ___                                                      |
|   / __| | | |_  )   Release 8.0.0 "Harrier"                           |
|   \__ \ |_| |/ /                                                      |
|   |___/\___//___|   Suite (Solution Exporting Code)                   |
|                                                                       |
-------------------------------------------------------------------------
| SU2 Project Website: https://su2code.github.io                        |
|                                                                       |
| The SU2 Project is maintained by the SU2 Foundation                   |
| (http://su2foundation.org)                                            |
-------------------------------------------------------------------------
| Copyright 2012-2023, SU2 Contributors                                 |
|                                                                       |
| SU2 is free software; you can redistribute it and/or                  |
| modify it under the terms of the GNU Lesser General Public            |
| License as published by the Free Software Foundation; either          |
| version 2.1 of the License, or (at your option) any later version.    |
|                                                                       |
| SU2 is distributed in the hope that it will be useful,                |
| but WITHOUT ANY WARRANTY; without even the implied warranty of        |
| MERCHANTABILITY or FITNESS FOR A PARTICULAR PURPOSE. See the GNU      |
| Lesser General Public License for more details.                       |
|                                                                       |
| You should have received a copy of the GNU Lesser General Public      |
| License along with SU2. If not, see <http://www.gnu.org/licenses/>.   |
-------------------------------------------------------------------------

----------------- Physical Case Definition ( Zone 0 ) -------------------
Input mesh file name: mesh_RAE2822_turb_deform.su2

-------------------- Output Information ( Zone 0 ) ----------------------
The tabular file format is CSV (.csv).
Flow variables file name: flow.

------------- Config File Boundary Information ( Zone 0 ) ---------------
+-----------------------------------------------------------------------+
|                        Marker Type|                        Marker Name|
+-----------------------------------------------------------------------+
|                          Far-field|                           FARFIELD|
+-----------------------------------------------------------------------+
|                     Heat flux wall|                            AIRFOIL|
+-----------------------------------------------------------------------+
Two dimensional problem.
13937 grid points before partitioning.
22842 volume elements before partitioning.
2 surface markers.
192 boundary elements in index 0 (Marker = AIRFOIL).
40 boundary elements in index 1 (Marker = FARFIELD).
Executing the partitioning functions.
Building the graph adjacency structure.
Calling ParMETIS... graph partitioning complete (831 edge cuts).
Distributing ParMETIS coloring.
Rebalancing vertices.
Rebalancing volume element connectivity.
Rebalancing markers and surface elements.
14875 vertices including ghost points. 
23674 interior elements including halo cells. 
18780 triangles.
4894 quadrilaterals.
Establishing MPI communication patterns.
Identify vertices.
Storing a mapping from global to local point index.

------------------------- Solution Postprocessing -----------------------
Reading and storing the solution from restart_flow.
Volume output fields: COORDINATES, SOLUTION
  Info: Ignoring the following screen output fields:
  RMS_DENSITY, RMS_NU_TILDE, LIFT, DRAG
Screen output fields: INNER_ITER
  Info: Ignoring the following history output groups:
  RMS_RES, AERO_COEFF
History output group(s): ITER
Warning: No (valid) fields chosen for convergence monitoring. Convergence monitoring inactive.
Warning: No (valid) fields chosen for time convergence monitoring. Time convergence monitoring inactive.
|Paraview                           |flow.vtu                           |
|Paraview surface                   |surface_flow.vtu                   |
|CSV file                           |surface_flow.csv                   |

------------------------- Finalize Solver -------------------------
Deleted CGeometry container.
Deleted CSolver class.
Deleted CConfig container.
Deleted COutput class.

Completed in 0.017045 seconds on 6 cores.

------------------------- Exit Success (SU2_SOL) ------------------------

